OPENFAST OUTPUT: 
**************************************************************************************************
OpenFAST

Copyright (C) 2026 National Renewable Energy Laboratory
Copyright (C) 2026 Envision Energy USA LTD

This program is licensed under Apache License Version 2.0 and comes with ABSOLUTELY NO WARRANTY.
See the "LICENSE" file distributed with this software for details.
**************************************************************************************************

OpenFAST-v4.2.0
Compile Info:
 - Compiler: Intel(R) Fortran Compiler 20250300
 - Architecture: 64 bit
 - Precision: single
 - OpenMP: No
 - Date: Jan 27 2026
 - Time: 23:14:56
Execution Info:
 - Date: 02/11/2026
 - Time: 17:56:41-0500

OpenFAST input file heading:
    NREL Wind Turbine Modeling Workshop Simulation

 Running ElastoDyn.
 Running InflowWind.

   Reading a 31x31 grid (163 m wide, 8.5 m to 171.5 m above ground) with a characteristic wind
   speed of 7 m/s. This full-field file was generated by TurbSim (from OpenFAST-v4.1.2) on
   11-Feb-2026 at 17:52:52.

   Processed 600 time steps of 20-Hz grid-field data (period of 30 seconds).
 Running AeroDyn.
   AeroDyn: projMod: 2
   Projection: Polar, BEM: polar (3D), MomentumCorrection
 Running ServoDyn.
 Running ServoDyn Interface for Bladed Controllers (using Intel Visual Fortran for Windows).
Using legacy Bladed DLL interface.

FAST_InitializeAll:ED_Init:ED_ReadInput:ReadBladeInputs:ReadBladeFile:The ElastoDyn Blade file,
MinimalExample/..\5MW_Baseline\NRELOffshrBsline5MW_Blade.dat, DISTRIBUTED BLADE PROPERTIES table
contains the PitchAxis column.  This column is unused and will be removed in future releases
FAST_InitializeAll:AD_Init:ReadInputFiles:Blade1:ReadBladeInputs:BlCrvAng will be calculated and
overwrite the values specified in blade file
"MinimalExample/../5MW_Baseline/NRELOffshrBsline5MW_AeroDyn_blade.dat".
ReadInputFiles:Blade2:ReadBladeInputs:BlCrvAng will be calculated and overwrite the values
specified in blade file "MinimalExample/../5MW_Baseline/NRELOffshrBsline5MW_AeroDyn_blade.dat".
ReadInputFiles:Blade3:ReadBladeInputs:BlCrvAng will be calculated and overwrite the values
specified in blade file "MinimalExample/../5MW_Baseline/NRELOffshrBsline5MW_AeroDyn_blade.dat".

 Time: 0 of 30 seconds.
                                                                                                  
 Time: 1 of 30 seconds.  Estimated final completion at 17:56:45 (in 0.000 days).
                                                                                                  
 Time: 2 of 30 seconds.  Estimated final completion at 17:56:45 (in 0.000 days).
                                                                                                  
 Time: 3 of 30 seconds.  Estimated final completion at 17:56:45 (in 0.000 days).
                                                                                                  
 Time: 4 of 30 seconds.  Estimated final completion at 17:56:45 (in 0.000 days).
                                                                                                  
 Time: 5 of 30 seconds.  Estimated final completion at 17:56:45 (in 0.000 days).
                                                                                                  
 Time: 6 of 30 seconds.  Estimated final completion at 17:56:45 (in 0.000 days).
                                                                                                  
 Time: 7 of 30 seconds.  Estimated final completion at 17:56:45 (in 0.000 days).
                                                                                                  
 Time: 8 of 30 seconds.  Estimated final completion at 17:56:45 (in 0.000 days).
                                                                                                  
 Time: 9 of 30 seconds.  Estimated final completion at 17:56:45 (in 0.000 days).
                                                                                                  
 Time: 10 of 30 seconds.  Estimated final completion at 17:56:45 (in 0.000 days).
                                                                                                  
 Time: 11 of 30 seconds.  Estimated final completion at 17:56:45 (in 0.000 days).
                                                                                                  
 Time: 12 of 30 seconds.  Estimated final completion at 17:56:45 (in 0.000 days).
                                                                                                  
 Time: 13 of 30 seconds.  Estimated final completion at 17:56:45 (in 0.000 days).
                                                                                                  
 Time: 14 of 30 seconds.  Estimated final completion at 17:56:45 (in 0.000 days).
                                                                                                  
 Time: 15 of 30 seconds.  Estimated final completion at 17:56:45 (in 0.000 days).
                                                                                                  
 Time: 16 of 30 seconds.  Estimated final completion at 17:56:45 (in 0.000 days).
                                                                                                  
 Time: 17 of 30 seconds.  Estimated final completion at 17:56:45 (in 0.000 days).
                                                                                                  
 Time: 18 of 30 seconds.  Estimated final completion at 17:56:45 (in 0.000 days).
                                                                                                  
 Time: 19 of 30 seconds.  Estimated final completion at 17:56:45 (in 0.000 days).
                                                                                                  
 Time: 20 of 30 seconds.  Estimated final completion at 17:56:45 (in 0.000 days).
                                                                                                  
 Time: 21 of 30 seconds.  Estimated final completion at 17:56:45 (in 0.000 days).
                                                                                                  
 Time: 22 of 30 seconds.  Estimated final completion at 17:56:45 (in 0.000 days).
                                                                                                  
 Time: 23 of 30 seconds.  Estimated final completion at 17:56:45 (in 0.000 days).
                                                                                                  
 Time: 24 of 30 seconds.  Estimated final completion at 17:56:45 (in 0.000 days).
                                                                                                  
 Time: 25 of 30 seconds.  Estimated final completion at 17:56:45 (in 0.000 days).
                                                                                                  
 Time: 26 of 30 seconds.  Estimated final completion at 17:56:45 (in 0.000 days).
                                                                                                  
 Time: 27 of 30 seconds.  Estimated final completion at 17:56:45 (in 0.000 days).
                                                                                                  
 Time: 28 of 30 seconds.  Estimated final completion at 17:56:45 (in 0.000 days).
                                                                                                  
 Time: 29 of 30 seconds.  Estimated final completion at 17:56:45 (in 0.000 days).
                                                                                                  
 Time: 30 of 30 seconds.  Estimated final completion at 17:56:45 (in 0.000 days).
                                                                                                  

 Total Real Time:       2.911 seconds
 Total CPU Time:        2.9062 seconds
 Simulation CPU Time:   2.8438 seconds
 Simulated Time:        30 seconds
 Time Ratio (Sim/CPU):  10.549

 OpenFAST terminated normally.


OPENFAST ERROR: 
RETURN CODE: 0
