
This full-field turbulence file was generated by TurbSim (from OpenFAST-v4.1.2) on 23-Feb-2026 at 17:04:53.

 | u-comp |  Y  x  Z  | Grid Resolution (Y x Z) | Time-step | Hub Elev | Mean U |
           113    30     10.125     10.345          1.000     150.00      7.75

 Z Coordinates (m):
 -150.000-139.655-129.310-118.965-108.621 -98.276 -87.931 -77.586 -67.241 -56.896 -46.552 -36.207 -25.862 -15.517  -5.172   5.173  15.517  25.862  36.207  46.552  56.897  67.241  77.586  87.931  98.276 108.621 118.966 129.310 139.655 150.000

 Y Coordinates (m):
 -567.000-556.875-546.750-536.625-526.500-516.375-506.250-496.125-486.000-475.875-465.750-455.625-445.500-435.375-425.250-415.125-405.000-394.875-384.750-374.625-364.500-354.375-344.250-334.125-324.000-313.875-303.750-293.625-283.500-273.375-263.250-253.125-243.000-232.875-222.750-212.625-202.500-192.375-182.250-172.125-162.000-151.875-141.750-131.625-121.500-111.375-101.250 -91.125 -81.000 -70.875 -60.750 -50.625 -40.500 -30.375 -20.250 -10.125   0.000  10.125  20.250  30.375  40.500  50.625  60.750  70.875  81.000  91.125 101.250 111.375 121.500 131.625 141.750 151.875 162.000 172.125 182.250 192.375 202.500 212.625 222.750 232.875 243.000 253.125 263.250 273.375 283.500 293.625 303.750 313.875 324.000 334.125 344.250 354.375 364.500 374.625 384.750 394.875 405.000 415.125 425.250 435.375 445.500 455.625 465.750 475.875 486.000 496.125 506.250 516.375 526.500 536.625 546.750 556.875 567.000

    0.000   7.650
    9.634   8.963   8.542   9.163   9.937  11.219  10.255   8.112   9.478   9.611   9.671  10.410  10.120   9.977   9.262   7.991   9.180  10.206   9.632   9.566   8.024   8.568   9.784   9.289   9.153   7.754   8.103  10.305   8.117   8.356   8.874   9.858   7.731   8.356  10.041  10.625   9.800   9.257   9.601   8.657   9.358   9.724  11.295   7.745   9.814   7.786   8.334   9.050   9.727   8.893   7.278   8.413   7.926   8.820   9.858   7.275   7.973   7.728   8.086   8.427   7.035   8.238   9.100   9.581   8.108   8.020   7.537   7.536   8.019   7.670   6.326   4.846   5.981   7.627   8.187   7.206   6.245   7.064   7.292   5.558   7.384   5.870   9.522   8.038   7.892   8.554   8.051  10.199  11.117  11.050   9.274  10.173   8.385  10.063  10.327  10.707   8.433   9.480  10.028   8.730   9.568   9.893   8.793   8.565   7.989   7.915   7.913   8.990   8.898  10.180  11.979  10.533  10.027
    9.180   8.918   9.125   7.885   8.245   8.505  10.098  10.047  10.104   9.235   9.257  11.182   8.685   9.773   8.600   9.224   8.163   8.669  10.145   9.821   8.167   8.844   9.827   8.230   8.766   8.367   9.782   9.835   9.521   9.959   8.543   8.844   8.672   9.714   8.697  10.681  10.414  10.394   8.860  10.331   9.759   8.064   8.705   7.853   9.183   9.649   9.415   7.403   8.500   9.253   8.276   8.224   8.185   9.998   9.729   8.115   8.214   8.690   8.089   9.732   8.439   9.885   8.561   9.058   8.930   9.660   8.156   9.434   6.527   5.559   5.823   7.177   8.416   9.194   7.312   6.547   5.991   5.880   7.908   5.362   4.919   7.216   9.606   9.095   9.325   7.526   7.222   9.689   9.445   8.889   8.574   9.666   8.676   8.989   9.981  10.306   9.025   8.793   9.874   9.627   8.258   7.455   6.133   6.572   6.772   9.312   8.396   8.588   8.478  10.821   9.843  12.190  10.369
    9.738   8.542   9.332   9.728  10.436   9.582  11.105   8.673  10.822  10.299  10.834  11.103   9.096   8.386   9.301   8.048   9.474   9.669  11.211   9.909   8.827   9.212   8.655   8.589   9.746   8.482   8.365   7.847   8.155   8.262   7.931   7.962   9.712   9.365  10.597   9.904   9.387   9.313  10.687  11.329  11.055  10.334   9.905   9.198   9.854   8.848   8.654  10.360   9.475   9.445   9.063   9.471   9.138   9.555   8.329   8.301   9.019   9.345   8.989   8.574   9.537  10.419   9.025   8.932  10.329  10.008  10.106   8.197   9.288  10.068   8.732   8.681   9.031   9.107   9.069   7.724   5.707   6.632   6.300   6.325   7.003   8.155   9.014   8.491   6.754   8.279   8.270   7.870   8.985  10.224   7.819   9.711   9.694   9.143   8.138   9.163   9.100   9.305   9.605   9.466   7.600   7.001   7.339   7.120   7.786  10.644   8.651   8.004   9.675  10.450  10.416  11.663  10.863
   10.158   9.717   9.923   7.359   9.269   9.340   9.109   8.957   8.583  10.730   9.863   8.350   9.482   8.999   9.404   8.754   9.556   9.392  10.332   9.961   8.996   9.830   9.497   8.363   9.322   9.801   7.876   8.364   8.573   8.468   7.722   8.524   8.452   9.836  10.326   9.767   9.719  10.421  11.719  11.276  11.213   9.115   8.867   9.827   9.175   8.924   8.646   9.248   7.917   7.537   8.626   9.460   9.871   9.454   8.522   8.984   8.081   9.473   9.878   9.715  10.029   9.428   9.152   9.808   9.635   8.593   8.860  10.461   8.761   8.583   9.120   9.928  11.171  10.239   7.808   7.484   6.783   7.138   7.166   7.233   8.086   9.650   7.549   7.804   7.817   8.587   8.164   7.653   8.895   7.621   7.935   8.193   8.669   8.612   7.056   9.326   8.613  10.226  11.188  10.490  10.521   9.676   9.847   9.309   7.893   9.469   9.821   9.924   9.974   9.671  10.873  10.936  11.590
    9.132   8.629   8.956   9.773   9.642   8.273   9.259   8.938   9.056  10.072   9.012   8.924   8.118   8.938   8.799   9.578  10.916   9.771  10.115   8.981   8.102   7.189   8.385   9.026   8.821  10.070   9.713   8.322  10.307  11.020   8.764  10.110   9.264  10.720   9.954   9.304   9.481   9.991  11.701   9.685   8.422   7.465   7.891   9.106   9.054   6.797   8.135   7.901   7.777   7.979   8.857   8.678   8.157   8.168   7.388   8.720   9.216   9.028   9.228   9.313   9.396   7.205   6.754   8.230   8.520  10.775  10.263   8.984   9.016   8.897   9.211  10.580   9.790   7.525   5.653   6.125   5.938   6.698   6.581   6.535   6.864   7.181   7.624   7.721   9.705   8.604   7.511   7.600   8.901   9.501   8.652   6.901   8.127   8.621   6.662   7.402   9.363  10.935   9.229   9.996   9.900   9.497   8.329   8.472   9.006   9.646  10.097   9.594  10.664   9.507   9.453   7.813   7.957
    7.449   8.090   7.810   8.413   8.803   8.917  11.376  10.439  10.374   9.553   9.556  10.186   9.197   8.372   7.581   7.925   9.549  10.284   9.033   8.686   7.717   7.128   8.755   8.891   9.597   8.973   9.085   8.992   9.460  11.299  10.778   9.382   9.755   8.713   9.979   7.594   8.568   9.904   9.734   8.509   9.756   7.977   6.950   7.798  10.044   7.600   7.399   8.525   7.580   8.494   7.043   7.579   9.037   8.896   8.762   8.346   8.293   8.836   7.866   6.631   7.458   8.452   7.930   7.414   9.634   9.082   9.096  12.068   8.723   9.016   9.357   9.150   9.204   7.640   7.742   6.742   6.097   6.541   6.600   6.975   7.165   7.742   8.434   8.337   8.138   8.579   7.691   9.301   8.786   8.840   8.249  10.401   9.361   8.546   7.719   8.418   9.339  10.714   9.640   8.694   8.190   9.023   9.725   8.732   8.469   8.551   8.953   9.614   9.173   9.182   7.691   6.903   8.742
    8.531  10.314   7.537   8.928   8.873  10.532  10.596  11.830  10.881   9.924  10.837  10.454   8.341   8.354   8.758   7.814   7.666   9.545   8.701   8.381   8.405   8.578   9.298  10.623   9.910   9.590   9.117   9.617   9.403   9.960  10.114   9.652   9.374   8.801   7.545   9.291   8.542   9.197   7.829  11.097   9.944   8.447   9.560  10.915  10.396   9.768   9.283   8.048   9.209   8.404   8.181   7.730   6.589   8.995   9.201   8.880   7.284   8.069   7.852   8.979   8.622   6.308   9.260   9.731   8.933   9.522  10.464   9.588   9.141   9.226   9.804   9.965   9.524   7.388   7.231   5.569   6.485   5.321   5.240   6.717   6.415   7.555  10.209   8.374  10.006   9.091   8.554   9.842  10.332   9.992   9.186   9.946  10.205   8.149   7.876   6.965   8.550  11.810  11.249  10.750   8.862  10.274   9.775   7.821   9.789  10.391  11.040  11.536   9.602   9.475   8.971   8.704   6.950
    9.754   9.628   7.083   7.279   7.747   9.239  10.393  11.103  11.336   9.815   9.691   8.696   8.136   7.977   7.769   6.634   6.647   7.125   8.548   8.444   7.919   8.831   9.984   7.720   9.662  10.058   8.446   9.961  10.176  10.773   9.472   8.875   6.688   7.440   9.404   9.678   8.948   8.085   7.454   9.140   9.054   7.885   9.638   9.326   8.730  11.098   9.198   9.499   9.818   8.956   8.752   8.147   7.327   7.890   9.067   7.405   8.568   7.423   8.727   7.762   8.114   7.123   7.935   7.773  10.606  10.686   9.291   9.426   8.467   8.723   9.175   9.619   8.479   8.021   6.572   6.403   7.039   6.101   6.821   7.538   7.938   7.770   8.823   8.550   9.612   7.598   8.596  11.306  10.061   8.948   9.900   9.147   9.301   8.462   9.082   9.407   9.467  10.927  11.764   9.824   9.155  11.930   9.931   9.008  10.070   9.529  10.327   9.521   9.868  10.552   9.224   8.702   7.219
    7.869   9.161   8.606   7.511   8.387   8.818  10.959   9.134  11.628   7.801  10.056   8.516   8.627   8.363   8.638   7.980   7.405   5.820   5.899   8.290   8.969   8.333  10.086   9.107  11.055  11.677   9.590   8.753   9.361   9.231  10.022   9.196   9.149   8.238   7.680   8.575   8.229   8.017   8.869  10.313  10.267   9.164   9.163   8.592   9.493   9.194  10.126   9.577   9.116   8.853   7.796   8.595   9.075   9.084   9.896   9.967   9.059   8.985   9.869   8.939   8.345   7.681  10.254   9.960   9.851   9.615   9.556   8.269   9.284   8.026   9.598   9.818   9.574   7.450   7.888   6.319   7.934   6.958   9.411   7.377   7.146   6.318   6.126   7.840   8.900   9.224   9.211   9.829   9.638  11.076   8.509   8.349   9.417   9.772  10.589   9.731  11.582  12.691  11.788  11.254  11.201  10.001  10.196  10.147   9.294   8.782   9.125   9.615   9.020   9.814   9.833   9.665   9.963
    8.408   8.421   9.366   7.810   7.822   8.276   9.471   9.875   8.830  10.314   9.995   7.930   8.590   8.225   7.439   8.323   7.802   6.835   7.466   8.207   9.256   8.866   9.765  10.948  10.282  10.170   8.578   9.337   8.785   9.678   8.967   9.448   8.798   6.294   8.121   7.022   9.240   8.589   8.115   8.743   8.493   9.936  11.253  10.626   9.359   9.608  10.042   9.996  10.040   9.333   9.370   8.756   9.026   8.588   8.837   9.190   9.830   9.484  10.751   8.799   9.438   8.495   8.622   9.193   9.499   7.657   7.582   6.866   8.520   8.750   8.663   9.006   8.840   7.775   7.852   7.701   7.822   7.679   7.156   6.598   8.979   8.014   7.038   6.892   7.947   8.628   9.247   7.622   9.973   7.997   8.389   8.503   6.562   9.662   8.442  10.298  10.916  10.242  11.278  10.151  10.258  10.216   9.485   9.865   8.460   8.639   8.347   7.911   8.926   7.975   9.103   7.671   5.812
    9.253   8.710   8.473   7.832   8.300   8.108   8.672   7.653   7.773   8.655   7.645   9.476  10.061   8.278   6.592   8.351   6.120   6.883   6.362   6.833   7.548   8.491   8.267  10.073  10.573   8.693   8.069   7.759   7.298   9.869   9.290   9.255   7.897   7.282   8.599   8.963   8.153   9.633   9.069   8.817   8.715   8.649   9.906  10.169   7.970   9.506   8.476   8.573   7.703   8.776   8.675   8.779   9.755   9.600   8.426   9.123   9.108  10.766  10.634   9.172   9.478   8.170   7.487   7.523   9.325   9.591   7.502   8.171   8.903   8.692   9.343  12.101   9.753   6.517   8.433   6.715   7.623   7.323   5.699   7.264   9.702   8.404   5.069   6.508   6.982   8.766  10.973   8.937   8.104  10.237   8.597   7.775   7.621   9.153  10.808   9.829  11.894  10.367   9.349   8.851   9.171   8.733   8.501   9.406   8.567   7.592   8.456   7.595   8.082   8.287   8.066   7.435   6.770
    9.054   7.547   7.620   8.081   9.508   8.290   8.382   7.550   8.522   8.121   8.915   7.371   7.325   6.978   7.159   8.215   7.411   7.632   7.607   6.583   4.874   6.562   7.781   7.231   8.903   8.354   7.603   6.897   8.003   7.673  10.008   8.763   8.663   7.377  10.004  10.329   9.903   7.562   9.524   9.070   9.280   8.612   8.612   8.881   8.380   9.354   7.318   6.238   6.935   7.032   7.967   7.871   7.900   9.451   8.659   9.568   9.663  11.019  10.413   9.157   9.648   9.021   8.829   9.044  10.320   9.921   7.735   7.655   8.463   9.045  10.959   8.992   8.348   5.711   7.478   8.409   7.542   7.226   6.677   8.851   6.523   7.746   7.074   8.311   7.258   8.808  10.233  10.218   9.011   7.954   9.238   9.276   9.481   9.411   8.814   9.931  10.342   9.622  10.287  10.552   9.984   9.032   9.756   9.608   8.353   6.179   7.838   6.807   7.231   6.501   8.416   6.926   7.048
    9.315   6.908   8.264   7.578   7.362   8.231   7.847   8.591   7.805   8.511   7.160   7.156   5.972   5.569   5.767   6.060   6.426   6.052   5.958   4.402   4.859   6.450   8.871   8.182   7.372   8.840   7.460   7.876   7.718   8.180   8.958   9.091   9.049   8.622   9.063   9.456   8.865   7.048   8.308   8.979   9.605   9.621   9.125   6.032   5.902   9.059   9.073   8.245   8.719   8.114   8.909   7.380   8.513   9.293   9.047   8.806   9.060  11.246   8.495   7.998   9.857   7.865   7.054   9.458  10.319   8.328   8.639   8.796   8.363  10.128  10.308   9.765   6.727   6.437   6.180   9.749   7.849   7.305   7.478   7.738   7.039   7.733   7.993   6.452   5.854   7.107   9.470  10.204   8.075   8.718   7.924   9.412  10.066  10.255   9.232   9.684   9.480  10.400   9.063  10.875   8.175   7.262   8.910   8.170   9.684   7.907   7.378   6.983   7.599   7.254   7.499   7.742   7.683
    9.013   8.293   6.658   7.401   7.068   6.649   7.574   7.855   6.809   7.338   7.483   6.276   7.801   7.071   6.291   5.184   4.581   6.621   5.359   5.198   5.910   5.814   9.078   9.647   7.973   7.582   9.189   7.786   7.577   7.868   9.822   8.747   8.948   8.842   6.896   7.324   6.836   6.872   6.773   8.930   9.685   8.812   7.652   7.902   5.688   8.559   7.977   8.929   8.914   7.922   9.465   7.882   8.174   9.767   8.939   8.023   9.201  10.153   8.011   8.640   8.122   8.977   7.881   8.192  10.846   9.190   8.268   9.105  10.724  10.128  10.021   8.763   6.573   7.320   6.855   8.420  11.158  10.333   7.803   8.042   8.413   8.372   6.800   6.974   6.662   6.984   7.476   8.699   9.920   6.936   8.149   8.241   8.673   8.434   7.997   6.747   7.957   9.615   7.380   6.634   8.026   5.892   6.243   6.144   7.681   6.793   6.104   8.396   8.747   9.350   5.902   6.871   7.596
    9.725   9.120   8.539   6.518   6.790   6.553   6.813   7.664   8.108   7.548   6.215   5.813   7.494   6.117   6.774   5.000   5.334   5.706   6.602   5.632   6.823   7.038   8.263   7.650   7.433   8.970   8.188   8.668   5.981   9.275   9.043   9.631   7.143   7.950   6.480   6.417   7.913   7.588   8.824   9.051   8.847   7.704   8.137   5.503   5.223   6.972   6.551   6.748   6.980   7.924   7.427   7.557   6.411   7.952   6.695   8.835   9.187   9.184   8.931   7.792   8.223   7.950   8.492   9.171   9.749   9.243   9.089   9.230   8.856   9.723   9.454   8.110   7.462   7.925   9.327   9.105  10.646   8.467   8.511   7.850   5.223   7.171   7.406   6.041   6.851   7.025   5.989   7.039   7.751   7.264   8.009   7.060   6.345   6.568   8.267   6.718   7.048   8.164   7.170   8.427   7.875   6.154   5.968   6.985   7.611   7.147   6.818   7.579   6.862   7.275   8.323   7.812   7.132
    9.777   8.979   8.807   6.743   7.709   7.195   7.866   7.840   7.677   7.297   6.720   7.464   6.722   5.938   5.798   4.674   6.275   6.933   5.542   6.395   6.122   6.536   9.273   6.817   7.566   9.864   8.073   8.946   8.456   8.535   7.193   7.910   7.771   8.952   7.906   7.844   7.945   8.320   6.803   7.438   7.243   7.784   6.401   5.685   5.562   4.538   6.018   7.464   8.347   9.039   7.596   8.490   7.591   6.265   7.167   7.381   8.247  10.214   9.512   8.379   9.588   9.275   8.793   8.816   8.601  10.238   8.962   9.474   8.831   9.668   8.412   9.303   8.251   7.530   7.842   8.535   7.527   8.986   7.664   7.745   6.324   8.115   8.749   7.035   7.383   5.766   6.942   6.195   7.483   6.713   6.415   6.740   9.038   8.179   7.866   7.826   7.963   7.837   6.786   7.685   6.511   6.593   5.677   7.890   5.486   5.027   6.924   8.653   9.459   7.273   7.601   6.741   4.342
    9.323   8.603   9.168   6.981   7.766   7.145   7.810   8.118   7.941   5.739   7.465   6.162   5.991   5.796   5.462   6.901   5.460   5.623   7.311   6.358   5.806   5.588   7.757   8.452   8.796   7.158   6.589   6.963   7.830   6.774   7.692   7.675   7.371   6.770   7.893   7.748   7.595   7.916   6.694   7.775   7.636   6.284   5.979   5.815   5.337   5.725   5.218   6.939   7.414   7.154   8.471   6.453   6.609   7.230   7.398   8.159   8.371   9.458   9.880   7.478   7.656   8.464  11.767   9.906  10.258   9.011   9.239   8.570   8.345   8.306   8.495   9.521   8.931   7.624   8.702   8.961   9.498   8.043   6.776   7.732   8.433   8.674   7.584   8.502   5.702   6.405   7.406   7.871   6.646   6.369   5.759   7.648   7.377   7.293   7.125   5.585   5.713   6.737   8.247   8.117   7.224   6.942   5.400   7.317   7.628   6.088   7.709   9.651   8.160   8.139   6.494   7.578   6.154
    9.148   9.022   9.345   8.062   8.462   8.607   7.455   7.368   6.540   5.604   6.832   5.974   6.306   6.705   6.050   7.989   8.271   7.095   7.281   5.616   5.613   6.147   8.169   7.421   7.578   8.619   7.960   7.242   8.518   7.376   5.634   6.803   6.361   7.270   7.884   8.177   7.170   6.866   6.759   6.921   5.829   6.908   4.804   4.884   4.949   5.092   6.332   8.278   8.225   7.844   6.280   8.045   6.204   6.081   7.554   7.941   7.718   8.713   8.748   7.930   6.890   8.249   8.234  10.835   9.992   7.649   8.641   8.316   9.054   8.935   8.300   9.944   8.909   9.627   9.188   8.690   9.277   9.791   7.682   7.545   7.031   7.716   7.714   6.686   5.823   4.721   7.957   5.787   6.020   6.602   8.310   6.343   7.565   8.057   8.155   7.806   8.541   6.970   5.788   8.655   6.878   7.056   6.858   7.270   7.745   9.350   9.809   9.586   8.068   6.948   8.235   6.364   7.601
    9.014  10.092   9.137   8.467   7.836   7.484   8.091   8.156   7.248   5.622   6.167   5.444   3.627   5.322   4.702   6.817   7.903   8.183   7.463   6.912   6.584   4.993   6.507   7.089   8.937   8.530   8.434   7.619   7.121   8.469   8.082   7.403   4.721   7.120   6.018   6.746   5.913   6.368   6.572   7.488   5.629   6.040   5.206   2.357   5.295   3.857   6.316   7.286   6.548   7.267   7.024   6.964   6.667   6.635   7.751   7.559   7.279   6.857   7.933   7.177   7.164   7.826   9.197   9.276   9.251   7.910   7.373   9.139   9.100   9.495  10.034   7.601   8.558   8.940   7.973   8.745   8.352   8.883   7.334   7.506   6.784   7.184   7.545   5.730   5.429   5.929   5.629   6.579   6.231   5.535   7.467   6.019   7.065   6.638   7.618   8.194   7.872   7.714   8.958   8.791   6.937   8.281   6.061   6.959   7.468   6.806   8.294   8.320   7.404   6.786   7.920   8.522   6.906
    8.509   8.476   7.246   8.776   8.291   7.201   6.736   8.446   7.809   6.793   7.785   7.117   6.108   6.323   6.282   8.019   8.156   8.508   6.572   7.431   7.264   6.678   6.563   7.325   7.466   6.476   5.239   8.479   7.246   7.181   7.921   7.548   5.116   5.326   6.067   7.096   5.544   5.564   7.095   7.141   4.488   5.336   5.667   3.991   4.324   5.925   7.058   6.278   6.085   7.947   7.635   6.223   8.200   6.859   6.985   7.529   8.399   7.932   6.527   7.499   7.660   7.873   8.401   9.119   9.252   8.838   6.859   8.253   8.557  10.080   9.602   8.028   7.734   8.277   8.412   5.212   7.069   6.328   7.143   5.240   4.926   5.297   5.578   5.155   5.199   5.461   7.987   6.426   6.836   7.326   7.372   7.981   7.356   6.949   8.745   8.912   7.409   6.826   7.016   6.603   6.301   6.632   6.395   7.056   6.351   8.285   8.717   6.906   6.900   6.528   7.521   8.121   7.666
    9.070   7.091   8.226   7.045   9.039   8.156   8.233   8.010   7.198   7.381   6.001   7.438   6.222   5.970   7.377   6.846   6.600   6.245   7.096   6.241   6.195   5.068   6.796   7.656   6.201   6.609   6.726   8.022   7.589   6.067   7.300   7.136   8.105   7.058   5.746   6.503   6.089   5.330   7.419   5.725   6.578   5.598   4.540   4.524   3.863   4.087   4.900   6.225   6.795   6.638   5.650   6.950   5.176   6.129   7.747   8.140   7.791   8.137   8.125   7.712   8.027   6.918   7.535   7.287   6.705   7.308   5.770   7.803   8.399   8.905   8.902   7.684   9.705   8.216   6.297   4.473   4.982   4.823   7.869   6.445   6.059   6.462   6.762   5.846   6.923   6.672   7.145   6.449   6.661   5.975   7.534   7.306   8.681   7.105   7.890   6.464   7.586   7.470   7.441   7.986   5.477   6.721   7.157   6.015   5.420   5.729   6.766   7.838   7.606   5.813   6.961   6.687   5.746
    8.330   6.870   6.524   6.038   7.245   7.716   7.746   6.603   7.869   5.644   6.014   6.719   5.812   5.676   8.215   7.840   5.711   5.316   7.020   5.925   5.362   5.704   4.852   7.222   8.881   7.237   7.668   6.417   6.985   6.077   7.354   6.606   6.396   7.251   5.764   6.351   6.805   6.050   6.540   5.775   5.815   2.970   4.319   4.457   5.269   5.628   4.358   5.679   5.575   6.793   6.526   6.368   5.362   6.153   6.691   6.517   6.703   7.733   6.395   7.096   7.914   7.239   6.968   6.105   6.932   7.049   6.422   6.308   7.794   6.101   5.922   8.728   7.280   6.251   7.840   5.546   6.040   5.923   4.243   7.933   6.763   5.069   7.438   7.561   7.926   6.766   5.756   5.666   6.097   7.124   6.857   7.334   7.919   6.437   6.720   7.109   7.117   9.154   7.437   6.395   5.568   6.130   6.803   6.189   6.162   6.229   5.993   6.207   6.540   3.883   6.280   6.469   7.399
    6.727   6.544   4.568   4.114   6.623   6.145   7.478   6.595   5.443   6.675   5.901   6.927   6.612   6.097   7.187   7.180   7.408   6.861   5.632   6.021   7.116   5.982   7.054   6.749   7.410   7.194   6.374   6.337   5.622   6.061   5.993   7.526   6.021   5.180   5.548   6.482   7.714   6.762   4.999   5.524   5.123   3.628   4.176   3.978   3.525   4.918   4.146   5.596   6.158   5.389   6.780   6.156   5.067   3.776   5.052   5.436   7.355   7.575   7.864   6.484   6.585   4.197   4.843   3.438   5.254   5.344   5.046   4.046   7.223   7.608   5.962   7.369   6.675   7.041   6.997   7.066   5.112   4.198   4.771   7.433   6.842   6.766   7.779   9.317   7.035   5.652   4.625   5.710   6.163   5.265   6.416   6.589   4.487   7.587   9.081   7.261   6.725   9.088   6.347   5.640   6.217   4.817   7.619   5.301   5.113   5.644   5.543   6.303   6.476   6.219   7.101   6.258   7.636
    7.243   5.804   6.806   6.098   6.174   7.750   6.399   6.643   6.781   5.891   5.495   5.841   7.390   8.502   6.182   7.231   6.373   6.115   4.413   5.029   6.436   6.727   4.894   6.026   6.285   5.332   5.681   5.175   7.194   6.566   5.867   4.481   3.815   5.110   3.912   6.593   7.497   6.854   4.877   6.823   4.837   4.521   3.742   4.066   4.105   4.795   6.010   5.868   4.969   4.977   3.990   6.143   6.120   4.976   5.115   5.893   6.182   8.740   7.157   5.363   7.190   6.958   6.316   5.028   4.894   5.135   5.490   4.357   5.641   6.887   5.630   5.355   6.282   5.275   6.324   5.023   5.734   5.384   4.517   7.506   5.954   4.928   6.351   7.712   7.471   7.227   5.453   6.412   6.428   5.615   6.952   6.276   6.203   5.968   8.285   6.591   7.571   6.911   5.356   5.405   5.642   6.430   4.844   5.653   5.375   4.597   6.403   6.299   6.584   6.787   6.419   7.750   7.689
    8.039   6.607   8.145   7.449   6.710   7.632   7.059   6.012   6.341   5.986   5.773   5.218   7.188   5.421   6.420   6.372   5.690   6.981   5.829   5.660   4.211   6.012   6.880   5.572   5.579   6.023   4.564   4.939   4.294   6.443   4.407   5.044   4.525   3.851   4.210   4.112   6.233   4.052   4.038   6.651   4.241   4.326   3.487   5.006   6.082   5.653   4.709   5.552   4.249   3.945   5.109   4.054   5.947   4.319   5.469   5.171   4.783   6.504   7.416   6.826   6.817   5.885   6.823   4.965   4.371   6.616   6.290   4.850   6.034   5.631   5.691   6.702   6.029   6.199   6.194   6.988   6.467   5.631   3.907   5.282   5.702   6.262   5.514   5.760   7.240   6.777   5.862   5.365   6.148   6.771   6.666   5.722   5.512   7.322   7.010   8.054   7.036   7.124   6.319   6.587   6.222   6.863   5.741   6.478   5.432   4.828   6.084   6.571   7.702   5.250   6.639   7.389   6.904
    8.294   7.962   8.113   6.561   7.170   5.987   8.069   6.953   6.261   7.820   6.200   7.735   6.510   5.668   5.255   5.090   4.776   6.938   7.118   5.990   4.240   5.118   4.673   5.715   4.312   3.905   2.801   1.465   4.503   5.538   4.675   4.404   4.474   2.704   3.856   4.421   4.257   3.524   2.939   4.661   4.987   4.366   4.305   4.137   5.219   3.933   3.126   2.634   4.038   3.025   2.209   5.797   3.782   4.040   5.310   5.804   5.305   5.309   6.287   6.166   7.067   6.782   6.530   5.876   4.377   5.759   5.843   5.137   2.615   4.838   5.587   4.517   3.531   4.886   6.030   7.685   5.617   7.007   5.136   5.069   5.659   6.508   4.890   5.446   6.850   7.065   5.586   3.913   4.958   5.093   7.339   5.465   5.325   6.408   7.753   6.822   7.342   8.600   7.850   6.496   6.026   7.039   7.173   6.842   6.034   7.436   6.243   7.209   6.768   7.141   6.444   6.600   6.582
    7.367   7.830   6.300   6.987   5.947   5.680   5.964   6.829   7.455   6.973   8.266   8.057   6.153   4.735   4.657   4.208   5.065   5.129   5.112   4.899   4.413   3.943   4.126   5.162   5.043   3.562   2.208   1.823   3.770   5.784   4.943   3.877   2.657   3.270   4.267   3.057   4.135   4.030   4.201   4.589   4.831   6.537   5.450   5.402   3.292   1.931   1.357   2.215   2.426   4.427   3.306   4.818   3.943   6.724   5.277   2.801   4.965   6.541   6.285   6.676   8.473   5.755   6.080   5.897   6.561   5.779   5.324   4.021   3.910   5.136   3.768   4.182   3.899   5.055   5.505   6.873   6.202   5.131   6.146   5.818   6.641   6.016   5.045   3.031   4.845   6.209   6.070   6.191   4.855   6.300   6.838   4.195   5.774   6.954   5.853   6.016   4.986   5.996   6.851   6.592   5.779   5.045   4.837   5.995   6.073   6.684   4.262   7.091   7.045   6.655   7.188   4.746   6.744
    5.987   6.622   6.898   6.903   5.767   7.038   7.744   7.130   6.464   5.829   6.697   6.368   7.202   4.128   4.704   3.061   4.626   4.393   3.677   3.696   3.978   3.993   3.491   5.146   3.082   4.467   3.536   2.194   3.846   4.481   3.221   3.997   2.315   2.844   1.593   2.066   3.809   4.281   3.376   2.975   5.603   5.930   4.155   5.447   5.096   2.452   0.875   0.661   1.154   2.295   1.767   3.163   4.067   4.054   4.107   5.993   5.459   5.379   7.965   8.120   7.775   5.551   4.240   6.313   5.567   4.649   4.769   2.853   3.148   6.040   5.288   4.080   3.803   6.141   4.882   7.282   6.324   5.166   4.535   5.841   5.180   5.062   3.537   4.424   5.860   5.964   6.356   5.090   6.041   6.074   7.859   4.795   5.301   5.396   6.011   4.854   5.291   5.957   5.891   5.562   5.093   4.273   5.256   4.028   6.622   5.652   5.929   7.689   7.060   6.837   5.799   5.088   4.874
    4.768   5.488   4.713   5.168   4.541   4.907   5.360   5.306   5.728   5.986   5.332   3.143   4.372   3.932   2.788   4.482   3.627   4.964   3.215   4.046   3.045   2.455   3.811   3.479   4.298   2.946   2.636   1.923   3.473   2.949   1.463   2.680   2.691   2.833   1.363   0.831   1.617   2.390   2.854   3.889   4.524   3.865   3.942   3.518   2.746   2.648   1.231   3.239   2.682   1.823   0.806   1.983   2.876   2.791   4.408   5.260   5.185   4.663   7.943   6.349   6.054   6.652   5.382   6.172   5.123   4.788   3.111   4.025   4.525   5.072   4.446   4.914   4.160   3.581   5.440   6.814   6.346   4.120   3.595   3.830   5.278   4.099   4.146   3.063   5.472   6.620   5.398   4.800   4.134   4.422   6.215   4.524   4.098   3.862   3.258   3.668   4.862   4.579   4.293   4.563   4.735   5.678   4.068   5.118   4.978   3.994   4.512   5.473   3.509   4.141   5.908   5.532   3.631
    0.797   0.468   1.421   1.317   2.239   2.262   0.552   0.096   0.540   2.147   0.966   1.415  -0.451   0.257  -0.946  -0.324   0.168  -2.001  -0.743  -0.758  -2.110  -1.062   0.001   0.572  -0.224  -0.609  -0.222  -0.335  -1.021  -2.092  -2.705  -1.673  -2.173  -2.006  -2.027  -3.009  -2.340  -1.597  -1.308  -1.604  -1.943   0.077   0.508  -1.210  -2.638  -2.724  -2.351  -0.701   0.291  -2.754  -2.545  -2.725   0.108  -1.552  -1.929   0.402   0.080   0.267   1.259   1.275   1.068   1.674   1.953   0.461  -0.167   0.558   0.059  -1.054   0.272   2.183   1.769   0.547  -0.582   2.018   1.365   1.154   0.401  -0.248  -1.849  -1.353   0.351   1.173   0.828  -1.187   1.368   2.750   2.595   1.357   0.198   0.743   0.127  -0.338  -0.917   0.153  -0.618  -1.035   0.342   0.483   0.020  -0.621   1.590   1.355  -1.064   0.484   1.562   0.440   0.342   2.310   1.173   1.482   1.852   0.091   1.395

    1.000   8.213
    9.328   9.003   9.150   8.774  10.387  10.367   9.173   9.468   9.231   9.164   9.575  10.042   9.802  10.044  10.138   7.969   8.696   9.773   9.200   9.493   8.251   9.223   9.267   8.624   8.205   8.037   8.165  10.199   9.059   7.616   8.799   9.115   7.792   8.316  10.029  10.092   9.319   9.890   8.831   7.423   7.490   9.777  10.362   8.048   9.390   9.569   7.907   8.202   9.742   9.397   7.489   8.929   8.661   8.987   8.939   7.550   8.416   7.260   8.704   8.794   7.760   7.655   8.236   9.142   8.940   8.125   7.827   7.775   8.755   8.179   6.674   4.653   6.548   6.515   7.218   7.269   7.205   6.025   8.319   6.368   6.532   7.342   9.212   8.550   8.107   8.899   8.112   9.878  10.829  10.038   9.880   9.350   7.691   9.049  10.102  10.767   8.483   9.524   9.068   9.065   9.127   9.143   8.434   8.222   8.381   8.897   8.260   9.708   8.761  10.198  10.838  10.939  10.888