
This full-field turbulence file was generated by TurbSim (from OpenFAST-v4.1.2) on 23-Feb-2026 at 17:04:59.

 | u-comp |  Y  x  Z  | Grid Resolution (Y x Z) | Time-step | Hub Elev | Mean U |
           113    30     10.125     10.345          1.000     150.00      7.75

 Z Coordinates (m):
 -150.000-139.655-129.310-118.965-108.621 -98.276 -87.931 -77.586 -67.241 -56.896 -46.552 -36.207 -25.862 -15.517  -5.172   5.173  15.517  25.862  36.207  46.552  56.897  67.241  77.586  87.931  98.276 108.621 118.966 129.310 139.655 150.000

 Y Coordinates (m):
 -567.000-556.875-546.750-536.625-526.500-516.375-506.250-496.125-486.000-475.875-465.750-455.625-445.500-435.375-425.250-415.125-405.000-394.875-384.750-374.625-364.500-354.375-344.250-334.125-324.000-313.875-303.750-293.625-283.500-273.375-263.250-253.125-243.000-232.875-222.750-212.625-202.500-192.375-182.250-172.125-162.000-151.875-141.750-131.625-121.500-111.375-101.250 -91.125 -81.000 -70.875 -60.750 -50.625 -40.500 -30.375 -20.250 -10.125   0.000  10.125  20.250  30.375  40.500  50.625  60.750  70.875  81.000  91.125 101.250 111.375 121.500 131.625 141.750 151.875 162.000 172.125 182.250 192.375 202.500 212.625 222.750 232.875 243.000 253.125 263.250 273.375 283.500 293.625 303.750 313.875 324.000 334.125 344.250 354.375 364.500 374.625 384.750 394.875 405.000 415.125 425.250 435.375 445.500 455.625 465.750 475.875 486.000 496.125 506.250 516.375 526.500 536.625 546.750 556.875 567.000

    0.000   9.655
    9.372   9.909   9.688   9.214  11.085  12.550  11.473  10.399   7.884   9.955   7.666   8.734   8.769   8.340  10.085  10.082  10.107   9.772   9.386   9.636   9.676   9.217  10.384  10.109  11.062   9.568   9.620  10.533   8.445   9.549   7.163   7.558   7.747   8.900  10.392   9.378   8.536   9.975  10.596  10.348  10.812   9.944  10.818   8.757   8.817   8.503   9.004   9.276   9.000   9.049   7.989   7.847   7.874   7.671   8.000   8.529  10.547   9.920  10.518  10.350  12.096  12.968  11.344  10.068  11.974   9.424  10.305  10.476  10.020   8.613   9.463   8.455   9.106   9.695   9.445  10.198   9.342   8.996   9.194   8.489   8.779   6.744   6.754   6.368   9.345  10.513  10.867  11.565   9.910  10.286  10.078   8.157   9.154   8.390   9.006  10.741  10.933  10.008   7.646  11.170   9.259   7.171   6.825   9.871   8.261   8.315   8.665   9.912   8.969   9.841   8.102   8.495   8.523
    8.684   7.393   8.892   9.390  10.083  11.184  11.103  10.072  10.850   7.475   7.959   8.013   8.610   8.522   8.977   8.920  10.000   9.074   9.838   9.100   9.353  10.880  10.890  10.503   9.032  10.104   8.756   9.525   8.758   8.097   7.780   8.942   7.884   9.280   6.526   7.554   8.883   9.320   9.813   9.018   8.910   8.321   9.336   9.806   8.227   9.481   9.883   8.455   7.676   9.779   8.974   6.934   9.676   8.329   9.224  10.467  10.034   9.061  10.309  10.761  11.762  11.796  11.664   9.262   9.150   9.522   8.672   9.142  10.506   8.919   7.973   8.602   9.509   8.446   7.088   9.096   9.034   8.534   8.530   6.825   6.869   8.944   7.982   8.118  10.247   9.788  11.736  12.187  10.083  11.753   9.137   8.119   7.790   8.842  10.428  10.403  11.020   9.282   7.323   9.614   9.888   9.454   9.861   9.633   8.541   8.485   9.208   9.685  10.787  10.049   9.994   6.935   8.685
    8.885   9.020   8.835   8.864   7.959   9.243   9.767   9.028   9.791   9.355   8.245   8.085   7.323   9.245  10.344  10.114   7.095   8.372   8.505   8.550   8.507   9.674   8.483   9.823  10.151   8.885   7.558   8.141   7.503   6.810   8.237   6.777   7.826   9.024   6.973   8.255   8.937   7.677   9.200   9.335   9.383   9.265   8.579   9.574   9.391  10.223  10.608   9.770   6.993   8.744   6.666   7.969   7.982  10.931   9.211  10.250   8.469   9.110  10.682  11.189  11.198  10.847  10.151   8.017   8.154   9.153   8.356   8.453   8.651   8.810   7.713   7.491   9.676   8.751   8.172   8.773   9.160   9.409   9.092   7.504   8.601   7.627   8.340   9.609  10.662  10.092  10.240  11.103  11.304   8.801  10.150  10.188   8.400   7.777   7.535   9.230   8.927   9.184  10.009   8.752  10.158   9.297   7.733   8.118   8.727   8.314  10.438  10.093  10.499   9.652   7.206   7.338   6.716
    9.505   8.740   9.423   9.838   8.165   8.724   8.611   8.008   7.828   7.301   7.129   6.286   7.053   9.507   8.434   9.213  10.804   8.786   9.921   8.892   8.385   9.371   8.344   9.041   8.173   9.767   7.243   7.513   7.951   9.403   8.830   8.794   8.408   8.271   8.031   8.844   9.136   7.755   8.769   7.009   8.224   9.068   7.405   9.620   8.737   8.497   9.400   8.788   6.961   5.949   9.056   8.772   9.249   9.500  10.946  11.364  10.287   8.869  10.460  10.550  10.795  12.703   9.412   9.569   8.953   7.239   8.586   9.073   9.055   8.084   5.759   7.310   7.970   9.466   9.292  10.239   8.686   8.864   9.041   7.633   9.314   9.441   8.629  10.349   9.739   9.758  10.802   9.523  10.512  10.702   9.384   9.113  10.242   9.036   8.669   8.699   7.455   8.149   7.836   8.097   8.713   8.088   8.458   8.384   9.532   8.124   8.581  10.324   8.983   8.900   8.501   7.948   7.700
    8.928  10.147   8.313   9.251  10.578   9.987   9.229   7.278   7.150   7.940   8.641   7.483   5.321   8.145   8.316   8.434   9.061   9.372   9.527   8.263   9.476   8.433   9.823   9.517   8.032   8.674   7.484   9.191   7.989   7.951  10.119   9.967   8.230   8.075   7.506   7.050   8.391   9.142   7.678   7.963   8.047   8.109   8.467   8.324   9.007   7.750   8.071   9.368  10.007   9.835  11.301   8.040  10.272   9.821  10.365  10.832  10.658   9.344  10.726  10.932  10.942  10.182   9.713   8.229   9.129   7.629   9.461   9.529   8.393   7.317   7.716   7.659   8.633   8.215   8.743   8.336   9.406   9.329   8.226   8.719   9.366   9.526  10.318   9.112   7.689   8.252   8.027  11.130  10.448  11.199   9.623  10.701   8.592   8.538   9.031   9.767   6.870   9.006   8.110   8.952   9.436   8.757  10.373   8.615   7.990   8.241   7.296   9.959   7.839   8.235   9.267  10.204   9.688
    9.959  10.107   9.310  10.793  10.248   9.118   8.890   8.360   8.416   9.135   8.095   8.140   8.232   7.726   8.193   9.078   6.458   8.534   8.541   9.017   9.652   8.452  10.110   8.399   7.062   7.902   7.816   9.885   7.762   9.243   8.477   8.184   8.833   8.228   8.899   7.737   8.661   7.533   8.108   9.196   7.287   9.140   9.041   8.197   9.052   9.011   8.330   9.752   8.331   9.960  10.536   9.757   9.708   8.539  11.149  10.942  10.537  10.858   9.034   8.970   8.902   9.308   7.576   7.449   7.981   8.924   9.076   9.336   9.348   7.330   8.725   8.370   7.258   7.864   7.822   7.965   9.494   8.568   9.535   8.354   9.375  10.874  11.366  11.056   8.367   8.525   8.587   9.922  11.050   8.912  10.390  11.166   8.758   8.397   8.640   8.571   7.094   7.375   7.931   7.278   8.683   8.798   6.916   7.548   8.814   7.195   7.447   8.210   8.192   9.058   9.934   9.627   7.503
   10.598   9.252   8.471  10.287   8.560   9.250   9.015   7.821   6.260   7.011   8.037   7.928   7.950   7.255   8.793   8.560   8.679   9.750   6.236   7.711   7.316   7.139   8.073   7.835   7.301   6.295   8.003   7.974   7.600   8.509   9.178   7.212   8.748   9.502  10.085   9.049   9.138   7.537   8.446   7.306   6.823   7.178   7.484   9.243  11.495   8.116   9.392   8.237   8.328   7.859   8.695   9.292   9.260   9.809  10.185  11.895  10.678   9.279  10.297   9.386   7.294   7.016   8.646   6.265   7.064   7.951   8.588   7.039   9.687   8.574   8.619   8.239   8.028   8.666   8.090   7.015   7.387   9.096   9.252   9.394   9.781   8.433   7.566   9.086   8.298   9.533   7.223   9.945  11.215  10.946   9.663  10.593   9.741   8.283   7.158   8.031   8.630   8.930   8.443   8.454   8.791   8.520   6.270   7.799   8.376   8.644   8.018   9.093   9.255   8.422   8.872  10.415   8.428
    9.094  10.606   9.131  10.190   8.682   7.986   7.900   7.131   7.294   6.866   6.381   6.088   7.168   7.564   9.749   6.496   7.306   7.173   7.905   6.465   7.681   7.685   7.783   7.247   7.376   6.262   6.775   8.181   8.984   9.238   8.244   7.578   9.002   9.801   9.517   8.603   9.148   8.576   6.971   7.180   5.925   7.772   7.316   8.469   7.624   9.562   8.404   7.482   8.458   8.324   7.890   7.878   9.462   9.011   9.751   9.586  11.344  10.166  10.160  10.951   9.715   8.729   9.124   8.514   8.483   7.723   8.403   8.594  10.040   9.648   9.039   7.806   7.942   7.397   8.302   8.293   6.981   7.548   9.283   8.062   8.834   6.205   6.920   6.932   7.159   6.966   9.179  10.322   8.934  10.637   8.487   8.773   8.784   9.035   7.455   5.577   7.839   8.517   9.174   8.147   8.955  10.027   7.865   6.740   8.783   9.943   8.766   8.547   8.183   6.364   8.723   8.483   8.621
    8.496   8.137   9.161   9.950   9.898   9.545   6.964   5.951   6.526   5.613   6.802   7.115   6.860   7.598   8.886   9.477   6.704   6.219   6.864   8.309   7.943   7.321   5.751   5.897   7.330   6.054   7.309   8.682   8.084   6.732   7.656   8.316   8.089   8.718   8.016   9.612   9.877   9.509   8.007   8.826   6.446   7.408   7.039   7.717   9.599   8.638   8.443   9.311   6.698   8.933   9.358   8.838  10.455  10.138   6.990   9.838   8.631   7.934   9.308   9.240   9.038   9.294   7.055   5.578   7.687   7.790   9.257   9.515  10.153   8.184   7.327   9.375   7.916   7.924   8.839   8.509   7.901   9.366   8.604   7.293   7.288   6.791   8.216   7.054   8.332   8.311   9.965   9.444   9.094   9.198  10.396   8.448   8.049   8.311   8.770   7.841   6.513   6.443   8.183   9.472   9.396   9.928   8.744   8.831   8.536   8.503   8.394   9.149   8.660   8.390   7.081   7.132   8.626
    6.386   8.376  10.111   8.794   9.128   7.645   7.482   4.862   7.187   7.463   6.578   5.482   5.898   5.898   6.940   7.793   6.428   6.765   8.360   8.383   8.577   8.642   7.823   7.397   7.455   8.095   8.666   6.804   7.356   6.882   6.568   5.499   6.884   7.942   9.347  10.522   9.450  10.822   8.963   8.054   8.254   5.865   8.672   8.655   8.499   8.533   8.243   7.823   7.807   8.069   7.893  11.306  10.713   8.783   7.570   7.983   8.238   8.891   8.685   6.866   9.274   9.296   6.931   7.469   8.068   9.214  10.165   8.971   9.650   8.127   8.128   8.168   7.477   7.955   9.225  10.404  10.966   9.786   7.759   8.529   8.006   8.462   8.884   8.257   6.925   9.169  10.193   8.690  10.042   8.447  10.073   7.171   7.640   7.343   7.621   8.111   6.991   8.449   8.690   9.483   8.997   7.913   7.229   9.064   8.352   8.093   7.517   6.867   9.615   8.106   7.792   6.637   9.737
    7.922   7.723   8.201  10.155   8.337   6.465   9.186   4.797   4.920   5.478   6.774   6.354   6.214   7.230   8.096   8.763   7.880   6.639   7.351   7.884   8.446   7.748   7.636   8.145   8.431   6.713   8.060   6.390   8.340   8.915   8.852   8.418   8.768   8.811   8.468   8.018   7.274   6.051   8.478   7.489   7.118   8.984   8.102   9.761   7.816   7.148   7.157   9.026   7.579   8.138   6.982   8.149  10.060  10.287   9.285   9.442   9.215   8.038   7.260   7.290   8.730   6.776   7.886   8.466   9.353   8.246  10.178   9.900   9.574   8.994   9.513   7.296   8.393   7.473   8.446   9.606   9.534   9.695   9.129   8.938   8.438   7.721   7.801   5.554   6.505   6.626   8.387  10.282  10.432   9.533   9.205   8.673   8.975   6.960   8.863   7.525   8.850   7.589   7.651   8.077   8.674   7.715   8.275   8.440   7.282   7.712   6.457   5.908   8.907   9.129   8.628   7.546   7.262
    5.942   7.778   8.676   8.568   8.862   7.042   6.689   7.756   7.624   6.844   6.966   6.917   5.419   8.026   9.153   9.167   7.424   7.875   8.743   8.460   9.848   9.436   7.606   8.626  10.003   8.259   8.830   8.234   8.639  10.204   9.332   8.458   8.086   8.439   7.655   8.254   6.237   4.779   8.854   8.526   6.637   8.606   8.608   9.295   9.435   8.825   7.714   8.062   6.510   7.621   8.365   8.160   9.597   9.224   9.500   9.669   8.932   6.191   7.631   6.467   8.316   8.043   8.128  10.261   8.860   7.600   9.533   9.831  10.730   9.438   8.764   7.312   6.858   8.065   9.483   8.181   8.960   8.836   8.587   8.166   6.675   7.428   9.864   6.176   5.301   6.853   7.722   8.989   9.421   9.249   7.951   7.365   7.081   8.918   8.985   8.267   8.237   8.037   6.486   8.320   8.091   7.336   7.055   7.130   8.474   6.439   7.372   6.855   7.326   7.673   7.348   7.268   8.221
    7.223   7.092   8.465   8.169   7.609   8.142   7.930   7.411   9.475   7.103   7.061   8.514   7.814   8.478   8.277   7.917   7.583   8.997   8.254   7.261   8.649   8.690   8.804   8.427   7.967   8.191   8.154   8.345   7.730   9.854   8.760   9.259   8.391   9.611   7.426   6.748   6.210   5.702   5.820   7.681   7.352   7.875   7.324   8.583   8.543   9.268   7.423   8.011   6.188   5.491   7.490   7.682   7.159   8.023   8.971   9.412   9.927   9.645   9.046   7.012   6.617   8.728   8.247   9.036  11.328  10.110   7.999   8.804   7.937  10.324   9.129   7.504   7.411   6.786  10.146   8.662   9.158   8.211   7.926   6.997   7.607   8.223   8.112   7.217   6.585   7.465   8.739   8.601   9.872   7.307   9.045  10.387   7.426   6.992   7.970   8.660   9.017   9.347   8.805   6.667   8.310   7.281   7.737   6.525   7.233   8.458   7.348   5.484   7.042   8.487   7.610   7.502   6.251
    7.812   7.315   7.341   8.367   7.480   7.546   9.397   7.318   8.249   6.043   7.839   7.395   8.962   8.827   8.803   8.069   8.372   7.587   5.866   6.587   8.927   9.043   8.820   6.559   8.368   6.654   7.609   7.658   7.765   7.802   8.221   7.167   8.383   6.849   8.396   7.270   6.250   6.234   6.525   6.565   7.066   8.733   7.427   8.000   7.736   8.077   7.894   7.959   8.438   9.109   7.019   7.358   9.134   8.852   7.925   9.013  10.759   9.639   9.263   9.533   8.468   8.125  10.405   8.534   9.391  10.522   7.409   6.255   6.796   8.771   8.503   9.944   7.954   8.931   9.683   9.102   8.035   7.965   6.717   8.379   6.218   5.955   8.043   7.590   6.631   6.623   8.359   7.681   8.501   8.480   8.894   7.636   6.465   6.213   6.699   7.943   8.941   8.301   7.583   7.226   9.106   6.934   6.564   6.811   8.770   7.412   7.324   5.472   5.825   5.254   6.774   7.430   6.727
    6.383   6.902   6.353   6.353   7.428   5.761   6.347   7.201   7.749   7.344   7.801   7.231   7.632   9.240  10.249   8.434   9.017   8.481   6.683   6.368   7.112   7.348   7.846   7.219   7.239   7.804   7.257   8.273   7.376   9.025   8.136   8.717   7.479   6.515   8.987   9.634   8.870   7.679   5.812   7.983   7.872   8.075   7.503   7.890   7.191   7.037   6.971   7.239   7.886   6.385   7.115   9.071   9.141   8.799   9.259   8.857  10.303  11.113  11.679   9.090  10.060   9.748   8.160  10.590   8.155   9.336   8.750   8.707   8.884   7.326   7.995   9.435   9.524  10.405  10.390   8.721   7.114   7.146   7.612   7.387   7.610   6.714   6.606   6.172   8.497   7.208   6.994   9.547   7.298   8.897   8.093   7.971   6.377   7.271   8.280   6.680   8.003   8.138   7.625   6.590   7.554   6.476   8.066   8.291   6.396   6.264   3.894   5.514   6.090   6.191   7.098   8.180   7.495
    6.828   6.263   6.156   4.402   5.534   5.757   7.225   5.701   5.949   7.131   6.686   7.400   8.091   9.476   9.190   9.241   7.685   7.524   6.564   6.225   7.217   6.399   6.498   9.415   8.883   8.014   7.247   6.806   8.169   6.133   7.741   7.009   5.872   6.845   6.975   9.040   7.662   7.108   7.388   6.722   6.663   8.377   8.563   8.535   8.037   7.011   7.112   6.305   6.976   7.676   8.369   8.722   8.552   8.473   9.359   6.836   8.014  10.550   9.977   8.499   9.397   9.639   7.778   9.416   9.934   8.259   8.185   8.123   8.263   8.990   8.104   9.168   8.006   8.582   8.186   8.566   7.720   7.684   6.644   7.746   6.726   6.382   6.479   5.907   7.295   7.600   6.917   7.019   6.733   7.174   7.984   8.052   5.875   7.938   7.337   6.881   6.769   7.726   6.704   5.535   5.014   6.519   6.774   6.171   6.127   7.155   5.310   7.687   7.676   6.744   6.006   7.012   7.395
    7.263   6.282   7.199   6.229   7.042   6.196   5.268   5.322   6.662   7.787   6.899   5.946   8.468   8.591   9.428   9.645   8.016   6.018   5.367   5.597   6.923   7.438   7.502   8.387   9.168   8.286   7.249   8.450   7.638   6.549   5.886   6.824   5.730   5.274   7.569   7.607   7.353   8.101   7.460   7.350   6.897   8.430   7.535   6.220   5.547   7.074   6.453   6.461   6.408   6.967   7.916   9.691   7.516   8.071   8.258  10.196   7.680   9.796   8.367   7.154   9.649   9.325  10.925   9.373   9.289   9.577   8.935   7.871   9.886   9.640   6.631   8.103   7.977   9.561   7.335   8.464  10.012   7.248   6.068   5.585   6.580   6.423   6.753   7.412   7.770   8.037   5.627   5.367   6.977   7.977   6.060   9.032   7.198   5.795   6.753   5.420   6.280   7.176   4.821   5.891   5.505   6.578   6.605   6.859   8.377   6.496   6.690   7.165   7.915   6.310   5.349   7.233   6.401
    7.528   7.969   8.469   7.532   7.463   6.825   5.097   7.636   5.708   5.998   7.345   7.981   8.497   9.896   8.502   8.512   6.804   7.901   7.236   7.839   7.403   7.091   7.998   8.502   9.817   9.522   7.538   7.208   7.059   7.685   6.629   7.801   7.349   5.313   5.678   6.634   7.264   6.942   7.714   7.803   6.215   6.803   6.232   6.853   6.761   5.516   6.527   6.995   8.182   8.112   8.416   7.990   7.842   7.650   9.574   9.606   7.960   9.658   7.932  10.313   8.209   8.523   9.373   8.226   8.208   8.655   8.425   9.060  10.042   8.614   8.970   8.877   7.872   8.656  10.171   9.692   6.571   7.447   5.933   4.793   5.675   7.232   7.703   6.638   7.473   7.316   4.930   6.092   6.378   5.705   6.871   7.487   6.551   5.293   6.919   6.541   6.264   5.831   4.562   5.596   6.530   5.082   7.018   5.514   7.090   5.945   6.732   6.984   5.787   6.212   5.476   6.677   5.850
    8.146   7.760   8.687   9.595   9.324   6.134   6.638   4.818   4.418   6.459   7.833   9.168   9.178   9.429  10.190   9.535   7.757   8.720   9.231   9.347   9.262   8.973   6.981   9.590   7.559   9.333   9.552   8.217   7.602   6.468   6.128   6.403   7.494   7.120   8.221   6.932   7.301   6.450   6.940   6.234   6.830   5.330   6.236   6.118   6.565   6.711   7.582   8.709   9.017   8.848   9.303   9.323   9.571   8.792   8.653   9.612   9.331   9.316   8.838   9.298   8.724   7.395   7.426   7.269   7.961   8.775   9.233   8.464   8.732   8.462   8.133   9.087   8.445   9.576   9.022   7.069   7.496   7.092   5.582   6.036   7.252   5.446   6.410   6.024   7.894   7.716   7.851   7.610   8.246   7.198   7.186   6.885   7.164   6.425   7.342   7.381   6.551   6.115   5.298   6.193   5.485   5.116   7.109   7.135   6.285   6.355   5.225   5.968   6.334   6.720   7.469   5.288   6.883
    7.034   6.595   7.449   8.294   6.772   8.481   7.441   6.776   5.276   6.687   8.549   8.455   8.809   9.485   9.046   7.302   8.658   8.594   9.686   9.121  10.664   9.377   8.764   8.124   9.608   9.603  10.435   8.850   7.858   9.242   9.606   6.457   6.094   7.317   6.783   7.212   6.851   8.101   6.780   6.733   5.575   5.427   5.748   6.848   5.569   7.721   8.262   7.894   8.637   9.261   9.040   7.829   9.568   9.510   8.650   8.100   9.292   8.040   7.528   8.876   8.484   8.589   7.209   9.118   8.084   9.714   8.497   9.670  10.208   9.431   8.881   9.352   8.416  10.899   9.133   8.589   7.724   6.620   6.041   6.278   5.987   5.705   6.521   7.433   8.255   6.628   6.433   6.941   8.568   7.329   9.486   8.408   7.944   8.445   7.479   8.072   6.410   8.134   7.210   5.177   6.288   5.164   6.449   5.137   5.458   4.955   5.797   5.163   6.934   7.026   5.998   4.714   5.885
    6.554   7.733   6.419   5.134   7.046   7.659   6.191   6.475   6.252   8.200   6.677   8.323   8.001   8.788   8.828   7.295   7.514   8.100   8.610   9.934   8.709   9.186   7.080   8.388   7.323   9.028   8.947   6.914   8.377   7.746   6.560   6.325   7.153   6.993   7.701   7.895   8.072   7.948   7.877   7.539   5.005   7.897   6.103   5.525   6.729   5.880   7.316   5.352   7.151   8.287   9.395   8.437   7.476   7.127   8.011   9.336   7.887   7.686   8.479   7.572   7.785   7.596   7.150   9.239   8.526   9.485   9.361   9.207   8.840   9.608   8.675   9.891   8.518   9.327   8.081   7.350   7.288   7.617   6.586   6.532   7.950   6.956   8.518   8.170   7.066   8.259   5.734   9.299   8.449   7.286   8.485   8.974   8.683  10.116   7.978   7.788   7.405   7.937   7.289   7.707   7.184   7.618   8.005   5.233   4.522   4.473   4.800   4.645   6.359   5.740   6.177   5.704   5.249
    6.651   7.452   6.324   4.527   5.199   7.135   7.530   5.494   6.815   7.857   7.815   7.820   6.358   8.180   8.908   7.682   8.314   8.030   8.600   8.584   8.280   8.494   7.048   7.445   6.728   7.545   8.178   9.332   7.887   8.465   7.304   7.020   5.454   6.429   6.778   7.600   5.047   7.715   8.416   6.476   8.740   7.215   6.208   6.300   6.997   7.604   7.551   6.750   6.548   6.767   6.341   7.707   8.203   7.374   7.777   6.707   5.131   7.101   7.098   7.975   6.930   7.267   7.295   7.526   7.872   9.228   7.848  10.058  10.313   9.031   7.931   8.979   7.927   7.158   8.356   6.430   7.010   8.314   9.134   7.340   8.651   8.872   8.150   6.372   7.305   7.695   8.300   6.986   7.229   6.472   7.175   7.591   6.926   7.139   7.214   7.172   5.739   7.328   6.597   8.540   7.633   6.065   5.781   5.279   4.287   5.657   3.791   3.636   6.493   6.211   5.204   4.783   6.578
    7.240   6.370   7.559   6.378   7.425   7.425   7.219   6.919   8.670   6.953   7.484   7.340   6.949   9.221   8.399   7.731   6.729   6.445   7.460   7.248   8.314   8.199   7.757   7.850   6.382   8.701   8.111   8.072   8.735   7.513   5.843   7.721   7.110   6.525   5.537   5.890   4.905   7.143   6.873   4.669   5.977   4.498   5.173   3.536   5.780   8.345   7.823   7.877   5.936   6.194   6.131   6.435   6.130   7.812   7.032   7.637   7.052   6.531   7.456   8.350   7.945   7.395   6.531   6.378   7.571   8.908   6.665   7.520   7.419   7.236   8.314   7.618   7.637   6.660   6.000   7.532   7.836   8.187   8.337   6.867   7.092   8.332   7.346   6.849   5.853   6.627   6.866   5.790   7.129   8.010   7.069   7.728   6.498   5.698   5.894   5.703   7.515   7.330   8.121   8.001   6.828   7.008   6.355   5.590   6.727   4.795   4.794   4.912   6.622   6.456   7.084   6.289   5.838
    6.320   6.139   5.733   7.069   6.943   7.000   7.908   7.178   7.624   5.151   6.684   6.750   8.124   7.426   6.231   4.801   7.497   6.605   7.800   7.846   6.563   7.188   5.788   8.021   7.266   6.722   6.969   7.377   8.099   7.461   6.082   7.459   6.215   6.866   6.936   7.329   5.363   7.167   7.125   5.658   4.993   5.099   3.664   3.596   3.901   6.732   6.802   6.929   6.743   5.582   6.014   6.191   7.295   9.606   9.116   7.047   7.420   8.357   6.340   7.068   7.641   6.191   6.360   7.920   8.634   8.521   7.309   6.765   7.213   7.493   8.813   8.430   7.096   6.704   6.533   5.834   5.887   6.575   6.327   5.603   7.313   6.846   5.888   5.123   5.201   6.225   7.651   6.010   6.976   8.273   7.382   6.036   6.107   5.396   6.879   6.963   7.019   7.294   6.673   5.885   4.941   6.832   5.593   7.408   5.738   6.783   5.370   5.321   5.690   6.231   7.055   7.507   6.133
    6.261   6.086   6.436   6.523   6.437   6.216   6.917   8.824   6.647   6.364   7.691   7.120   6.996   6.961   5.861   6.462   6.130   5.903   7.611   6.053   5.401   4.798   5.904   5.995   6.016   6.392   7.623   8.843   7.111   6.549   7.192   7.047   3.877   4.657   5.709   6.492   6.025   6.926   7.219   4.208   3.802   4.891   5.626   4.381   4.789   6.469   6.286   5.785   7.186   5.126   6.076   6.967   7.876   9.069   7.979   7.296   6.859   5.636   7.002   7.621   6.755   6.872   8.631   8.932   9.219   9.016   8.175   8.191   5.866   7.261   6.132   6.369   6.578   5.662   5.204   7.380   8.481   7.758   7.030   7.074   6.800   5.980   4.822   3.983   5.578   5.610   5.611   6.170   6.761   7.646   7.963   7.731   8.306   7.902   6.343   6.289   5.880   6.380   4.829   4.945   5.784   6.800   4.743   4.801   4.921   4.658   5.140   6.936   5.817   6.526   5.174   4.469   7.197
    6.389   6.524   5.903   6.488   8.807   7.380   6.860   6.495   7.314   6.253   6.804   7.492   6.101   6.562   7.413   7.532   6.577   6.110   5.705   5.740   6.207   6.157   5.396   6.785   7.918   8.025   9.035   8.053   6.572   4.647   5.747   6.314   5.122   4.429   5.712   6.370   7.697   5.957   6.431   5.522   4.831   2.739   4.181   2.909   4.195   5.905   4.391   4.311   4.479   6.104   5.906   7.560   7.430   6.782   7.989   6.744   6.913   6.473   6.530   6.720   6.774   8.416   8.163   8.008   7.561   7.579   8.112   7.446   6.253   6.296   5.814   7.397   7.490   5.971   5.966   6.600   7.066   8.157   6.846   6.316   4.946   5.167   5.384   7.453   6.482   5.440   7.428   6.275   5.900   5.698   5.846   7.029   7.883   7.205   5.655   5.356   4.634   5.720   5.032   5.001   5.537   6.942   5.955   5.577   3.745   5.098   5.858   5.843   4.622   5.743   5.761   4.165   5.967
    5.798   6.002   6.436   6.478   6.949   6.218   7.494   7.028   6.175   4.831   5.400   6.006   6.411   4.700   6.370   6.478   5.324   5.268   6.887   5.866   4.831   6.230   6.367   6.007   6.584   6.658   8.044   6.554   4.829   5.099   5.531   4.527   4.822   4.192   5.355   6.658   7.403   4.507   5.076   3.877   3.510   2.739   3.171   4.582   4.707   3.317   5.356   4.889   3.476   5.363   5.272   8.122   7.666   6.918   6.854   6.580   8.210   7.016   7.447   8.298   7.322   7.402   6.876   7.573   7.613   7.279   7.821   7.677   5.769   5.031   5.234   5.330   5.289   5.612   7.143   6.724   7.974   6.795   5.938   4.979   4.647   4.883   6.031   6.425   6.982   6.017   4.107   6.341   5.012   4.043   5.074   4.200   3.794   5.239   5.165   6.442   5.321   4.999   6.603   5.950   5.536   6.149   6.752   6.868   5.480   6.152   4.868   4.065   5.931   5.615   6.173   6.390   4.196
    7.235   5.885   6.643   6.024   5.638   5.896   6.342   5.861   5.559   4.396   6.100   5.128   4.410   4.902   2.415   3.696   5.034   4.567   7.060   7.107   4.668   5.539   5.420   6.353   6.203   6.862   5.747   6.047   5.306   4.690   5.426   5.538   5.103   5.879   4.475   6.331   5.953   5.492   3.684   3.975   3.796   3.641   2.830   3.197   3.682   3.507   3.542   4.298   3.785   3.100   5.596   7.079   7.430   7.106   6.370   5.769   7.298   6.559   6.937   5.754   6.598   6.836   6.860   5.565   5.832   6.600   8.015   6.024   4.822   6.699   6.486   6.826   4.613   6.923   5.865   6.201   6.484   5.317   4.454   5.976   4.717   5.257   5.088   6.819   4.659   4.176   4.613   5.320   2.197   4.237   4.322   4.239   4.498   5.238   4.819   6.057   3.411   4.116   5.524   6.422   5.368   5.827   6.511   5.410   5.099   3.766   3.504   3.619   4.626   4.807   5.521   5.886   5.320
    3.452   6.002   5.383   6.421   6.245   6.241   6.357   5.580   4.861   4.626   5.980   5.489   4.164   4.173   1.862   4.625   4.374   4.970   6.590   4.939   4.870   6.081   4.797   5.361   5.152   5.652   5.082   4.023   2.915   3.738   4.344   5.609   4.298   4.523   5.317   7.110   5.493   5.626   3.885   3.906   3.242   5.395   3.467   4.142   3.611   3.086   3.495   4.331   3.906   4.226   5.176   5.677   5.797   5.196   4.869   5.107   4.558   5.573   4.711   3.893   3.245   2.814   5.179   6.645   5.817   5.478   6.355   6.579   5.259   5.119   5.798   6.315   3.744   4.619   4.556   5.580   6.323   7.110   5.213   4.497   3.616   4.455   5.664   3.773   3.320   4.177   5.527   4.914   4.364   4.278   5.281   4.092   3.886   5.034   6.602   5.252   5.224   5.815   2.850   4.432   5.346   4.739   5.136   4.619   2.879   3.333   2.419   3.241   5.141   5.182   4.787   6.484   5.838
    0.480   1.884   1.994   0.207  -0.420   1.382   2.243   0.338   1.771   0.241   1.801   1.382   1.426   0.319   0.570   0.437   1.013   0.934   2.216   1.165   2.390   2.054   2.297   1.715   1.295   1.798   0.685   0.240  -0.049   0.032   0.618   1.024  -0.994   0.883   2.604   0.812   1.195   0.713  -1.395   0.168  -0.083   1.707  -0.212  -0.254  -0.703  -1.108  -1.836  -0.442   1.129   0.102  -0.799   0.453   1.592   1.424   0.232   0.687   0.725   1.058   1.149   0.005  -0.330  -0.429   1.507   2.415   1.601   1.488   0.709   2.787   0.686   1.384   1.177  -0.125   1.236   1.376   1.705   0.513  -0.954   0.864   0.220   1.275   1.776   0.975  -0.081  -0.318   0.202   0.744   2.226   0.165   1.131   0.390   0.797  -0.062  -0.641   0.389   0.974  -0.199  -0.561   0.353   0.060   0.792   1.857  -1.559   0.353   1.304   0.132  -0.589  -0.189  -0.974   0.774   1.883  -0.218   0.075   0.790

    1.000   8.640
    9.624   9.601   9.804   9.364  11.522  12.612  11.667  10.136   8.609  10.366   8.034   9.121   8.462   8.542  10.181  10.820   9.660  10.093   8.804   9.737   8.624   9.717   9.706   9.309  10.563  10.007   9.663  10.044   9.098   7.812   7.125   7.928   8.784   9.644   9.505   9.305   8.780  10.296  10.915   9.980  10.464   9.136  10.510   8.197   9.551   7.971   9.262   9.544   9.633   9.773   8.774   8.664   8.447   8.305   7.378   8.833  10.579  11.523  10.598  10.383  12.718  12.890  11.008   9.915  10.247   7.997  10.419   8.980   9.175   8.019   8.861   7.462   8.191   9.864   9.510   9.691  10.619   8.646   9.516   7.982   8.566   7.084   7.285   6.765   9.203   9.878  10.035  10.934  10.760  10.262   9.630   9.224   9.354   8.710   9.611  12.031  11.348   9.840   7.746  11.468   9.679   6.445   7.780   9.180   7.560   8.435   8.408   9.060   8.630  10.202   8.647   8.679   8.148