
This full-field turbulence file was generated by TurbSim (from OpenFAST-v4.1.2) on 23-Feb-2026 at 17:04:46.

 | u-comp |  Y  x  Z  | Grid Resolution (Y x Z) | Time-step | Hub Elev | Mean U |
           113    30     10.125     10.345          1.000     150.00      7.75

 Z Coordinates (m):
 -150.000-139.655-129.310-118.965-108.621 -98.276 -87.931 -77.586 -67.241 -56.896 -46.552 -36.207 -25.862 -15.517  -5.172   5.173  15.517  25.862  36.207  46.552  56.897  67.241  77.586  87.931  98.276 108.621 118.966 129.310 139.655 150.000

 Y Coordinates (m):
 -567.000-556.875-546.750-536.625-526.500-516.375-506.250-496.125-486.000-475.875-465.750-455.625-445.500-435.375-425.250-415.125-405.000-394.875-384.750-374.625-364.500-354.375-344.250-334.125-324.000-313.875-303.750-293.625-283.500-273.375-263.250-253.125-243.000-232.875-222.750-212.625-202.500-192.375-182.250-172.125-162.000-151.875-141.750-131.625-121.500-111.375-101.250 -91.125 -81.000 -70.875 -60.750 -50.625 -40.500 -30.375 -20.250 -10.125   0.000  10.125  20.250  30.375  40.500  50.625  60.750  70.875  81.000  91.125 101.250 111.375 121.500 131.625 141.750 151.875 162.000 172.125 182.250 192.375 202.500 212.625 222.750 232.875 243.000 253.125 263.250 273.375 283.500 293.625 303.750 313.875 324.000 334.125 344.250 354.375 364.500 374.625 384.750 394.875 405.000 415.125 425.250 435.375 445.500 455.625 465.750 475.875 486.000 496.125 506.250 516.375 526.500 536.625 546.750 556.875 567.000

    0.000   9.494
   11.857  12.200  10.081   9.575   7.367   9.455   8.137   9.862   9.012   9.807   9.718   8.402   6.585   6.851   8.510   8.684   9.231   9.014  10.066   9.701  11.299   9.968  10.571  11.600  11.600  11.339  11.170   9.957  11.026   9.626   9.317  10.584   8.843   8.145   8.419   8.859   7.355   8.439   7.910   8.913   9.355   9.890   8.893   9.323   8.079   9.204   8.712   9.120   9.947   9.522   9.532  10.823  10.873   8.805   9.327  10.209   9.757   9.386  10.259   9.971   8.123  10.664   8.474   8.376   8.570  10.063   8.660   8.779   8.077   8.768   9.568   9.210   9.651   8.879   8.353   9.966   9.134   9.280  10.098   9.829   7.293   7.285   8.773  10.198   8.572   8.740   8.110   7.220   8.416   9.151  10.417   8.711   9.759   8.852   9.581   9.115   9.259   8.573   8.465   8.917  10.975   9.605  11.633  10.438   9.748  10.695  10.624  11.711  11.332   9.788   9.789   8.794   7.597
   11.981  10.761  10.474   7.276   7.994   7.215   6.938   8.202   8.250   9.351   9.226   8.757   8.915   8.146   7.772   9.220  10.638   9.986   8.791   9.490  10.613  11.003   9.320  10.810   9.977  10.162  11.067  10.385   9.290   8.862   9.201   9.391   8.291   7.750   7.607   9.915  10.169   9.278   8.256   9.185   9.255  10.395   8.373  10.089   9.327   9.482   9.781   8.849   9.093   9.793   9.812  10.761  10.024   9.705  10.472   9.787  10.987  10.428  10.617   9.170   7.338   8.178   8.608   8.649   9.426   9.759   6.533   8.275   7.149   7.704   7.501   9.151   8.419   8.047   9.209   9.155  10.714   9.918  10.362   9.265   9.264   7.539   7.953   9.795  10.809   8.390   9.068   9.057   7.655   8.775   9.273   9.231   9.628   8.945   8.117   8.743   9.131   8.621   8.552  10.267  12.012  11.786  11.279  10.573  11.224   9.537  10.753  11.447  10.993  11.117   9.404   8.489   8.648
   10.795  10.161   7.720   8.612   9.929   8.030   7.041   7.802   8.949   8.459   8.147  10.998   9.039   9.427   8.784  10.110   9.808   8.557   9.639   9.436   7.939   8.833   9.790  10.503   9.653  10.557  10.799   9.422  10.195   8.814   8.036   7.882   7.377   8.364   8.715  10.381   8.824   9.332  10.176   8.547   9.654   9.224   9.327  10.894  10.993   9.991   9.339   9.123   8.987  10.612  10.607   9.460   9.254   9.569   9.315  10.032  10.552   9.411   9.945   8.247   8.400   8.744   9.082   8.635   7.228   7.363   7.291   9.349   6.812   5.748   7.908   8.463   8.235   9.205   9.400   9.170   9.320  10.519  11.493   9.225   8.216   7.969   8.133   8.289   9.115   7.876   7.241   9.080   8.615   8.334   9.238   9.736   9.406   9.103   8.979   8.718   7.889   8.373   9.696  10.516  10.866  11.203  11.465  11.314  11.578  10.868   9.923  10.612  10.364   9.886  10.540   8.493   9.260
   10.007  10.385   9.789   7.717   8.266   9.693   8.230   7.629   8.248   6.997   6.430   7.901   9.033   9.299  10.734  10.308   9.149   9.744   9.038   7.179   7.851   7.522   8.675  10.301   9.314   8.701   9.531   8.667   9.250   9.744   9.217   9.336   8.259   9.576   8.020   8.659   9.785   9.962  10.111   8.557   9.103   9.800   8.772  10.645  10.767   9.106  11.081  10.985   9.900   9.490  10.287   9.872   9.285   8.234  10.582  10.626   9.544   9.520   9.038   8.932   8.237   8.989   6.880   7.349   7.455   6.574   5.845   6.329   6.137   6.923   7.925   7.521   9.442   8.942   9.061   8.970   8.707   8.666   9.505  11.216  10.493   9.355   8.482   9.230   9.190   8.939   6.971   9.104  10.254   9.346  10.800   9.199   8.928   9.165   8.809   7.560   8.054  10.522  10.493   9.931  10.782   9.587   9.421  10.594   9.099   9.491  10.437  11.081  10.475   9.951   9.760   8.000   8.440
    9.967   9.871   9.660   9.024   8.444   7.297   8.171   8.666   8.948   8.140   6.326   6.849   7.639   9.337   8.414   7.265   7.895   8.823   9.601   7.904   7.674   8.136  10.217   9.674  10.027   8.594   8.816   9.557  10.706   9.651   9.241  10.154   8.790   9.745   8.769   6.754   8.979   9.789   8.618  10.409  10.614  11.048   9.910  10.089  10.278   9.863  10.225  10.918  10.054  10.585   9.960   9.466   9.033   8.467  10.001  11.232  11.124   8.311   7.952   8.217   9.264   8.658   9.196   5.817   8.022   5.547   6.566   6.633   4.640   6.101   6.909   6.693   6.808   8.383   8.238   8.260   7.329   8.115   9.087  10.085   9.646  10.331  10.812   9.379   9.964   7.662   8.028   6.859   9.175   9.147   9.061   9.151   7.910   7.971   8.552   8.617  10.411   8.672   9.142  10.928   9.908   9.462   9.667   8.436   8.018   9.686   8.906   8.180   8.740   9.166   9.038   8.493   6.851
   10.840   8.494   7.487   8.294   7.907   6.943   7.566   8.190   8.675   7.944   6.823   7.017   6.368   9.166   7.719   7.787   9.181   7.391   8.005   7.599   8.716   9.169   8.928   9.068   9.348   8.124   8.276   8.604   9.826   8.672   8.102   8.932   9.613   8.027   8.213   6.298   8.385   8.728   9.115   8.443   8.976   9.222  10.891  10.264  11.681   9.540   8.954   9.580  10.614   9.734   8.080   9.876   8.521   8.983   9.397   9.614   9.875   9.428   9.746   9.113   8.873   9.713   7.249   8.495   7.580   6.286   6.905   6.763   5.666   6.858   6.570   6.692   7.730   8.725   7.225   7.004   5.849   9.169   8.177  11.030  10.555  10.493  11.594  11.378   9.651   8.513   7.705   8.217   9.131  11.361   8.794   8.449   7.986   7.918   9.252   7.614  10.541   9.732  10.577  10.888   9.956  10.014   8.868   7.791   7.121   7.668   8.411   9.145   8.958   8.784   7.339  10.129   7.977
   10.139   9.057   7.589   9.577   7.134   6.887   6.441   7.095   7.824   6.949   7.688   7.098   6.605   7.745   7.959   6.930   8.754   7.968   6.816   8.120   8.583   8.691   8.955   7.744   6.578   8.312   9.686   8.266   8.090   7.879   7.218   7.564   9.068   8.616   8.881   8.380   8.901   9.444   7.796   8.032   8.749   7.176  10.441  10.538   9.552   8.493   9.090   8.999   8.071   7.855   7.989   9.257   8.809  10.336   8.638   9.426  10.268  10.967  10.036   8.584   8.311   9.217   7.715   8.225   7.653   7.730   7.831   8.135   7.692   5.868   7.949   7.690   7.915   7.606   7.335   7.121   5.523   8.748   8.201   8.604   8.649  10.140   9.717  10.186   9.097   9.409   8.857   9.494   9.531   8.341   8.265  10.110   9.389   8.746   8.116   9.370  10.177   8.189   8.704  10.185   9.864   7.909   8.340   6.546   6.408   6.787   8.091   8.126   9.016  10.076  10.120   9.145   9.171
   10.376   9.347   8.339   7.437   6.889   7.656   9.008   6.628   7.714   7.353   6.683   5.808   8.041   7.729   8.109   7.082   8.694   9.589   5.950   8.700   9.546   9.177   7.825   7.345   9.976  10.102   8.217   6.743   8.188   8.490   6.756   6.349   5.981   7.573   9.255   7.134   9.851   9.670   9.287   9.379   8.125   8.624  10.656  10.708   8.380   9.712   9.383   8.717   7.945   9.281   8.620  10.952   9.579  10.355   9.368  10.661   9.543   8.576   8.692   8.827   9.703   9.924   8.118   8.657   9.306   7.211   7.432   7.711   5.331   5.726   5.335   7.260   7.613   7.778   7.346   8.245   7.565   8.227   7.274   8.584   8.367  10.599   8.553   9.618   9.834   8.693   8.587   8.590   9.153   8.235   7.826   8.880   9.496  10.048  10.543   8.864   8.924   8.695   8.834   9.070   9.122   7.663   7.205   6.189   8.325   7.411   8.992   9.550   9.681  10.114  10.974  11.767   9.497
    9.241   8.745   8.024   7.591   7.765   6.995   8.119   8.640   8.130   7.754   6.372   8.276   7.599   8.579   9.479   8.785   8.834   8.539   7.370   8.918   7.661   7.468   7.025   8.003   9.792   8.647   7.275   6.665   6.154   7.624   8.172   9.094   7.355   8.429   8.087   7.141   9.071   7.718   7.544   7.624   8.210   6.832  10.627   8.464   9.159   7.271   6.725  10.540   8.343   9.267   9.968   8.449  10.416  10.306  10.093   9.232  11.916   9.584   8.589   8.549   8.972   9.962   8.179   9.147  10.042   8.617   8.965   6.491   6.799   6.067   6.668   7.900   6.488   7.721   8.566   8.705   7.517   6.508   6.786   7.866   9.217   9.426   9.684  10.479   8.251   8.449   8.276   6.739   8.335   7.364   7.141   9.518   9.906  10.153  10.131   7.884   8.981   9.576   7.939   8.307   7.127   8.379   5.468   7.873   8.390   8.248   9.592   8.707   9.324  10.399   8.983  10.031  10.893
    8.785   9.527   9.128   8.196   8.171   7.543   7.108   8.095   5.588   7.486   8.506   8.498  10.011   8.202   8.947   6.514   9.058   6.825   6.577   7.319   6.972   7.379   6.370   7.059   8.060   8.060   7.147   7.522   7.962   7.891   7.440   7.227   6.899   5.994   7.974   7.897  10.401   7.866   7.765   7.720   8.539   6.922   9.724   8.452   9.817   8.622   9.880  10.986   9.293  11.335   9.073   9.722   8.008  10.521   9.769  10.205  11.868  11.045  10.327   8.746   9.184   9.323   8.479   8.515   8.279   9.403   8.935   6.436   6.744   7.540   7.980   7.268   7.179   8.876   7.886   8.018   7.593   8.033   7.889   7.085   7.515   8.631   9.471   9.218   8.572   8.721   9.126   7.252   7.923   7.191   7.331   9.313   9.658   9.065   8.899   8.746  10.622  10.287   9.074   7.742   7.800   7.183   6.001   7.294   9.519   8.406   9.436  10.007  10.833  10.453  10.572   9.230   9.944
    8.228   8.841   8.878   8.384   8.091   8.002   8.486   6.996   6.874   7.952   8.555   9.539   8.575   7.676   8.253   9.136   7.872   8.652   6.372   7.332   7.461   8.480   8.064   7.846   7.424   9.318   8.537   6.690   6.737   7.577   6.206   6.348   5.845   6.239   8.029   7.939   9.638   8.100   8.727   8.616   7.667   6.932   6.791   8.549   7.638   8.475   8.976   9.012  10.781  11.186   8.581   8.083  10.407   9.571  10.117  10.404   9.998  10.511  10.590   8.586   9.305   8.243   9.032   8.973   8.610   8.426   8.860   6.382   6.824   7.561   7.753   8.260   8.843   7.431   6.407   7.363   6.944   7.118   7.604   7.566   6.677   8.007   8.171   7.888   7.971   7.696   7.769   7.826   7.949   8.505   7.791   8.623   7.885   8.688   8.280   9.347   9.382   9.768   8.505   7.542   7.976   7.382   7.262   7.184   8.463   9.876  10.307   9.845   9.283   7.405   8.301  10.065   9.516
    8.623   7.920   8.472   8.126   9.475   9.375   9.192   8.541   9.539   8.522   8.417   6.607   6.612   7.417   5.992   8.974   8.415   8.878   7.435   7.645   7.977   8.608   8.523   7.879   7.853   8.846   7.553   9.031   8.410   6.440   7.478   6.680   6.647   6.455   9.335   9.333   9.305   8.840   8.255   7.850   7.684   7.611   6.334   8.250   8.728   7.912   7.224   8.267   9.279   9.395   9.749   8.008  10.474   9.576   9.360  10.636   9.359   9.185   9.980  10.777   8.545   9.598   8.820   7.812   8.231   9.357   7.268   7.387   7.273   6.882   7.899   9.264   7.375   7.803   7.095   7.086   6.807   7.609   5.742   6.415   5.582   6.073   8.666   8.854  10.282   8.871   7.111   7.861   7.806   6.915   6.966   6.022   7.194   8.189   8.819   8.158   8.343   7.800   6.530   6.777   6.002   7.235   7.335   7.588   8.034   9.887   9.475  10.118   8.143   8.458   8.511   8.002   7.627
    8.608   7.945   8.255   9.493   8.022   8.652  10.083   8.550   9.027   7.836   7.790   7.792   7.697   7.767   6.290   7.061   8.061   8.219   8.114   8.487   9.567   8.703   8.199   8.743   7.987   8.783   6.013   7.573   8.978   8.450   9.172   7.427   6.436   7.221   8.140   9.083   8.448   8.969   7.896   6.417   6.896   6.735   6.242   7.307   6.648   7.473   6.541   8.031   9.609   9.491   8.379  11.026  12.115  10.551  10.110  10.107   9.575   9.340   9.005   9.269   8.736   9.365   8.322   7.782   9.746   9.562   8.881   9.165   8.047   7.635   7.261   8.707   6.171   6.840   8.208   7.179   5.708   6.792   5.953   6.183   6.287   6.858   8.110   8.551   9.372   7.939   7.326   6.867   6.590   8.206   7.333   7.409   6.512   6.226   6.964   6.765   7.275   9.283   7.078   4.686   7.596   6.744   7.730   7.842   8.245   5.757   8.732   7.753   8.060   9.345   5.590   6.477   6.486
    6.327   8.914   6.819   8.034  10.110   9.123   8.784  10.684   9.088   8.202   8.514   7.575   7.013   7.320   6.497   7.073   7.998   5.892   8.344   8.869   7.904   7.069   8.124   8.534   8.413   7.180   6.311   8.798   7.161   8.651   7.756   8.160   7.173   7.963   6.629   9.886   9.391   8.176   8.167   7.649   8.419   7.437   8.185   8.514   7.976   7.743   8.408   9.256   9.034   9.385   9.731  10.744   9.923  11.450   9.308  10.698  10.103  10.698   9.925   9.550   8.316   9.563   6.838   8.708   9.702   8.508   8.878   7.854   8.013   8.654   7.466   7.152   6.859   5.952   5.712   6.992   6.492   7.820   8.188   5.924   6.029   7.080   6.216   7.501   7.176   7.423   7.105   8.151   5.951   6.696   8.507   7.678   6.156   6.708   7.685   8.444   8.688   7.018   5.797   5.324   8.012   7.628   6.500   7.883   7.833   7.477   8.376   5.804   7.551   8.169   6.074   7.495   5.694
    5.671   6.356   9.053   8.557  10.073  10.037   9.388   9.384   8.865   9.611   8.386   8.190   6.814   7.211   5.271   6.105   6.110   6.304   5.570   8.145   6.280   7.955   8.124   7.640   9.325   7.842   7.427   8.539   7.583   8.492   9.071   6.889   7.063   4.812   6.731   7.099   8.902   8.753   9.250   9.445   9.277   8.694   6.161   7.965   7.723   8.212   8.305   7.972   8.354   8.708  10.368  10.947  11.010   9.930  10.760  10.505   8.304   8.728   8.759   8.851  10.016   9.521   8.520   9.490   9.274   7.639   6.370   7.363   7.342   7.649   7.138   6.524   6.429   7.588   6.425   8.357   7.896   9.384   7.432   8.114   7.895   7.434   6.913   5.050   7.419   7.974   5.814   6.126   6.374   8.263   7.873   8.549   6.050   4.798   6.483   8.625   7.206   7.831   6.693   6.363   7.697   7.459   5.383   7.790   7.538   6.872   7.223   9.407   6.322   6.499   9.175   6.484   7.150
    7.967   8.098   9.120   8.538  10.176   8.216  10.129  10.580  10.146   9.157   7.659   7.742   7.743   6.240   7.523   7.291   5.642   5.656   6.189   4.667   6.167   7.025   7.579   8.986   8.220   8.269   7.828   7.862   8.855   9.850   6.730   6.855   6.235   8.095   6.268   6.667   7.043   9.485   8.784   8.309  10.250   9.035   6.631   8.107   8.559   8.098   8.994   8.644   8.540   9.560   9.671  11.292  10.677  10.829  11.079   8.459   9.348   8.242   7.323   6.735   8.733   8.355   8.539   7.803   7.651   6.092   7.558   6.762   8.453   5.975   6.001   6.741   5.576   4.715   6.446   8.551   7.923   8.383   7.692   7.680   8.406   7.656   5.328   5.273   6.037   6.310   6.536   6.445   6.372   6.859   6.852   5.758   5.346   4.992   7.613   9.494   8.186   8.572   8.707   7.014   6.727   6.427   6.788   7.398   6.731   7.245   8.718   8.317   8.817   7.543   8.164   6.829   6.817
    7.364   9.477   8.351  10.154   7.428   8.547   9.951   9.856  10.255   8.964   6.708   8.324   7.306   7.064   7.559   7.445   7.966   4.581   4.952   4.751   5.455   6.479   5.778   6.879   8.128   8.000   9.769   8.090  10.153   8.393   8.249   7.183   6.649   7.460   6.778   7.385   5.897   8.812   7.199   8.332   8.756   8.375   9.140   8.707   7.889   7.869   9.494   8.208   7.682   8.305   8.608  10.085   9.695   8.017   8.539   9.843   7.740   8.160   8.165   8.871   9.210   9.407   8.951   9.005   7.967   6.966   6.982   6.587   7.209   6.962   6.426   6.551   6.925   6.750   7.037   5.455   7.238   8.133   8.713   7.859   6.704   6.247   6.312   5.602   3.913   4.884   5.340   8.590   5.653   6.232   6.872   6.870   3.135   4.273   4.867   7.988   7.703   9.103   9.363   9.157   5.804   7.157   5.755   7.920   8.540   7.110   7.557   8.391   7.925   6.091   6.956   6.118   6.287
    8.348   9.102   8.200   9.656   8.673   9.993   9.501  10.987   8.364   6.882   6.435   7.337   8.417   8.161   7.848   7.183   6.257   5.479   4.707   6.009   4.624   3.575   6.720   8.309   8.540   8.047   6.394   7.087   6.566   8.151   8.344   7.603   7.914   7.125   7.675   8.404   8.532   8.362   6.960   9.032   9.955   7.408   8.449   8.116   7.833   8.018   9.305   6.884   6.092   8.449   7.643   8.089   8.424   8.513   9.502  10.000   8.479   6.989   8.897   9.497   8.321   7.027   7.286   8.276   8.173   8.913   5.989   5.285   6.655   6.886   6.449   7.073   6.837   6.577   5.486   7.259   6.018   6.538   6.511   5.807   5.644   6.060   6.284   5.907   6.781   6.265   5.924   8.176   6.787   6.036   6.788   4.862   3.451   4.259   5.104   6.627   7.755   8.487   9.065   8.619   6.214   6.461   7.119   6.888   6.666   7.540   8.726   8.521   8.699   5.588   6.989   6.156   6.166
    7.438   7.687   8.477   7.561   9.188   9.225   9.142   8.291   8.479   6.309   5.990   6.417   6.166   6.310   8.395   7.414   6.676   4.640   4.727   5.175   4.525   4.107   4.950   5.821   7.946   7.881   6.100   6.748   7.315   8.438   6.918   7.101   6.120   9.343   7.816   9.708   9.234   9.633   9.754  10.762   8.724   8.523   7.418   6.267   8.130   8.807   7.823   6.687   7.856   8.366   7.586   6.623   7.003   7.481   8.872   7.329   7.106   8.609   7.665   7.284   8.633   7.246   8.938   6.591   6.994   9.061   6.886   7.028   5.674   6.431   6.723   6.425   9.757   7.511   7.777   6.339   4.771   5.279   4.347   7.836   4.597   6.672   5.979   5.214   7.076   6.683   6.427   6.997   7.082   6.908   5.964   5.222   6.088   6.115   6.749   6.902   6.325   8.819   8.639   8.564   6.532   6.436   6.891   7.811   6.756   6.654   8.188   7.095   7.327   6.237   7.224   7.134   8.116
    7.578   9.633   7.506   8.363   7.745   7.996   7.292   9.502   7.389   5.822   6.327   6.950   7.345   7.103   6.209   6.297   5.647   5.875   4.333   5.856   5.866   4.582   6.313   4.249   6.626   6.071   6.117   7.564   7.237   8.404   7.367   6.114   8.522   8.287   8.858   9.594  10.340   8.337   9.079   8.271   8.128   7.552   7.421   5.980   6.115   6.247   7.852   9.246   8.131   7.005   8.504   6.664   9.511   8.761   9.760   9.710   8.730   6.098   7.080   7.987   7.349   7.964   7.751   8.047   8.272   8.496   7.616   7.860   5.918   6.697   7.740   8.297   8.426   6.113   5.841   3.414   5.806   5.200   5.851   4.780   7.011   6.656   5.419   6.156   6.689   5.795   7.059   7.259   6.071   7.501   6.257   7.898   6.756   7.697   5.890   7.582   8.776   8.019   8.394   5.851   6.396   5.810   5.575   5.522   6.844   7.905   9.107   8.040   5.723   6.772   6.905   8.455   8.095
    7.346   7.698   8.488   9.577   9.126   7.656   8.991   7.801   8.505   8.375   8.593   8.184   6.623   6.315   6.527   5.104   6.268   6.445   4.974   6.377   5.679   5.287   7.071   7.515   6.159   7.296   6.882   7.068   8.750   7.011   7.746   7.398   8.087   9.253   8.022   8.325   8.200   7.148   7.943   7.783   7.204   7.920   6.576   5.509   4.791   6.098   7.418   7.704   5.903   6.380   6.861   6.982   7.752   8.342  10.007  10.822   9.497   7.838   8.632   7.272   7.531   8.095   7.209   7.760   7.397   8.008   8.842   7.831   6.433   6.474   6.179   7.654   7.796   6.890   4.783   6.356   6.755   6.581   6.237   6.168   6.640   6.584   5.971   7.765   7.490   6.971   9.237   7.960   6.647   6.863   8.110   8.021   6.739   7.734   6.889   6.344   8.488   8.529   7.893   7.320   6.035   7.936   8.329   6.220   6.857   7.981   8.390   6.988   5.978   4.804   5.741   5.570   6.271
    7.335   7.493   7.216   6.918   8.016   9.350   8.263   8.189   7.924   9.503   7.269   7.922   7.124   6.172   5.579   6.039   6.500   7.166   5.124   5.795   6.167   6.834   7.161   7.657   7.661   6.162   7.188   6.244   6.094   7.432   6.699   7.860   7.423   7.542   7.791   5.996   6.779   6.684   7.175   7.735   6.902   8.438   7.116   4.894   5.107   6.893   5.938   5.068   6.483   5.858   5.553   5.648   7.170   9.587   9.116   8.070   7.724   7.600   6.856   8.382   7.622   7.509   7.326   8.098   8.879   7.912   8.124   8.303   6.836   6.012   6.880   6.663   4.994   6.590   5.968   7.328   6.534   7.901   6.450   6.253   6.843   5.850   5.381   7.303   7.653   6.973   7.904   7.170   5.340   5.841   8.237   5.756   8.392   8.133   7.636   9.294   8.483   8.998   8.389   7.049   7.249   8.909   8.199   6.790   6.319   6.620   7.123   6.317   5.274   4.952   5.734   5.358   5.036
    6.930   5.241   7.393   7.770   7.513   7.354   7.451   7.916   6.346   7.506   5.040   6.058   5.823   4.694   6.862   5.723   6.441   6.436   5.366   5.647   7.142   7.824   8.359   7.676   7.413   6.577   8.087   7.157   7.981   7.199   6.040   6.476   7.320   5.889   5.979   6.159   6.628   6.573   6.134   5.401   8.009   8.637   7.259   6.089   5.463   6.125   3.872   6.599   6.927   6.760   5.548   6.565   7.485   7.136   6.817   6.281   6.883   6.283   6.825   7.434   9.360   8.037   5.984   8.118   8.350   6.669   7.423   6.596   6.822   7.666   6.300   6.687   6.449   6.902   7.294   5.622   5.217   7.819   6.140   6.304   6.085   5.601   7.006   8.410   8.796   6.827   7.185   5.045   5.744   6.255   6.707   7.406   7.379   7.238   6.733   8.531   8.922   8.343   7.644   7.430   7.263   8.139   8.513   6.443   8.600   8.295   6.960   7.746   5.694   6.801   6.477   6.362   4.348
    5.267   6.583   7.035   8.390   7.565   8.247   6.213   5.514   4.796   5.446   6.959   4.824   3.606   5.668   7.044   5.129   6.140   5.299   6.450   7.713   7.742   7.597   8.174   7.066   7.273   6.539   9.588   9.159   7.634   7.442   6.380   6.036   5.590   7.735   6.416   7.190   5.891   7.667   6.206   6.915   6.216   8.607   6.443   5.639   6.004   4.835   4.290   6.163   6.697   5.432   6.385   6.309   6.813   5.431   5.058   6.830   4.608   4.098   5.774   5.245   6.554   5.689   7.146   6.676   8.254   8.876   7.235   6.943   7.480   8.264   7.000   6.816   7.292   7.056   6.952   6.370   5.482   6.478   7.774   6.239   6.806   6.509   6.638   6.928   6.732   6.832   5.191   5.066   5.723   5.811   7.570   5.273   5.248   6.593   7.486   8.459   7.257   6.183   6.453   7.175   6.734   7.527   7.709   5.225   6.919   6.575   5.415   5.728   4.082   5.129   4.827   3.294   5.854
    8.472   5.831   6.184   7.699   7.981   7.159   5.248   6.169   5.691   6.272   6.272   6.049   5.210   5.244   5.589   4.906   4.705   6.004   6.664   5.719   6.894   5.716   6.449   7.120   6.335   6.505   6.494   8.221   7.737   6.875   5.644   4.514   4.991   7.055   6.421   6.123   5.642   6.131   6.937   6.869   6.684   6.385   5.361   5.141   7.064   5.206   5.040   5.173   4.137   6.396   6.086   6.409   5.125   7.456   5.794   4.374   5.044   4.133   3.745   5.217   3.804   5.810   3.845   4.125   6.287   6.151   7.517   6.604   6.213   5.171   6.567   6.099   7.359   6.295   6.939   7.020   6.829   8.220   7.440   6.076   7.415   8.342   8.272   6.761   6.397   7.079   5.449   4.150   5.901   4.447   5.183   6.158   5.820   7.035   7.150   7.741   6.396   6.177   6.613   6.523   5.729   5.762   5.535   5.416   5.772   4.876   4.429   5.593   5.269   3.850   4.260   3.761   4.269
    5.160   6.664   7.666   6.556   5.747   6.214   4.631   4.052   6.015   5.961   6.659   5.318   3.665   5.348   5.539   6.187   6.173   5.402   6.544   7.413   6.970   6.801   6.884   9.165   6.336   6.888   8.327   6.443   5.604   5.824   5.508   4.631   5.619   5.201   6.333   5.369   5.182   5.826   6.961   5.773   6.871   6.080   4.051   4.716   6.805   7.443   6.963   5.513   5.297   4.320   6.371   6.121   5.297   4.625   3.746   3.541   3.763   2.673   2.655   3.427   2.997   3.873   2.107   5.011   4.975   7.410   6.459   5.038   4.490   5.784   5.788   6.342   6.357   6.886   6.971   6.392   6.948   6.463   7.175   7.028   7.176   7.434   6.893   8.809   6.986   5.246   6.754   5.952   4.328   5.750   5.905   6.389   5.915   7.989   6.928   6.312   6.346   6.294   7.267   7.450   5.129   4.933   4.773   4.838   4.648   4.093   5.397   4.356   4.332   4.042   4.015   3.695   3.883
    7.152   6.105   5.409   6.894   6.225   4.506   5.205   4.440   5.044   6.810   4.362   3.982   4.125   5.736   6.354   4.344   3.344   4.454   5.145   5.556   5.907   7.080   5.274   6.279   8.023   7.777   7.115   6.403   6.758   6.327   4.494   5.844   5.274   3.594   3.906   5.964   6.535   3.744   5.135   5.825   5.278   4.881   4.217   5.040   6.113   7.222   5.965   6.058   5.429   5.148   5.500   5.348   4.408   3.927   3.777   3.744   4.750   3.091   2.958   2.182   3.890   2.825   2.739   4.339   6.596   3.675   3.570   4.579   3.828   4.686   3.930   4.563   4.839   6.771   8.356   7.685   5.732   6.976   6.540   7.550   6.084   6.148   6.973   7.360   6.995   7.528   4.037   5.399   3.921   3.900   6.098   5.117   4.656   5.995   7.249   8.243   8.185   7.981   7.059   5.601   4.591   5.074   5.366   4.026   3.411   5.432   3.731   4.870   5.682   4.154   4.362   3.935   4.404
    4.824   5.925   6.682   6.440   4.893   4.468   2.679   3.937   4.060   4.208   4.362   4.767   4.324   3.958   6.175   4.556   5.240   5.849   4.753   5.857   5.326   4.619   4.637   5.136   5.518   6.584   6.442   7.377   5.522   6.002   4.600   4.731   4.847   4.200   3.943   4.229   3.634   3.997   3.160   3.662   5.048   3.327   4.091   4.942   5.639   7.010   5.450   3.525   4.195   5.071   6.269   5.584   3.667   4.648   3.774   3.606   2.396   3.572   3.049   1.638   2.727   2.136   3.180   4.735   4.994   3.632   3.056   2.533   3.811   3.215   3.375   5.668   4.151   5.991   6.041   6.752   5.889   7.910   6.298   7.492   5.820   5.152   5.506   6.848   6.868   4.184   6.386   3.114   4.408   3.834   5.427   3.940   6.569   7.647   7.134   6.431   6.915   7.120   6.131   6.142   4.514   4.377   4.372   5.379   4.361   5.358   4.506   3.532   5.061   5.332   5.119   5.397   5.543
    4.376   5.056   5.439   4.735   4.487   4.677   3.632   3.230   4.374   4.089   4.794   4.062   4.966   4.587   4.159   4.237   4.683   4.259   3.615   4.382   3.941   4.299   4.437   3.600   4.519   5.049   6.180   4.709   3.713   5.669   3.081   3.098   4.057   3.903   3.373   2.474   2.827   3.164   3.360   2.433   4.060   4.742   4.822   5.674   5.898   4.292   4.652   3.719   4.409   4.078   2.854   2.155   2.486   3.306   2.822   0.817   2.521   2.098   3.321   2.162   3.802   2.575   3.777   4.739   3.470   3.327   3.533   3.516   3.210   2.290   3.369   2.801   3.854   3.983   4.972   4.788   5.472   6.247   6.107   5.794   4.464   4.600   4.120   5.197   6.588   4.602   2.978   2.296   4.698   5.416   4.408   5.173   5.819   7.830   8.256   5.459   4.340   5.927   3.648   3.629   5.058   4.378   4.938   4.885   4.275   3.956   4.229   3.508   4.104   5.242   3.875   3.971   3.105
   -0.921  -0.042   1.996   1.967   0.973   1.227   0.875   0.466   0.252   1.164   0.936   0.394   1.096   2.066   0.855   0.080  -0.062   0.454   0.205  -0.306  -0.210   1.189   1.614   1.402   1.076   1.209  -0.706   1.008   0.517   1.188   0.204   0.382   1.174   0.502  -0.528   0.518   1.466   1.540  -0.202  -0.292   0.201   1.723   2.769   1.914   1.834   1.925   1.206  -0.573  -1.703  -1.785  -1.858  -0.534  -0.684  -0.782  -1.085  -0.834  -1.595  -1.602  -1.877   0.711  -0.950  -0.090  -0.619   0.304   1.447  -0.920  -1.360  -2.552  -0.171   0.860   1.340   0.005   2.229   0.681   0.899   0.943   0.960   1.552   2.065   1.094   2.188   1.444   0.931   1.225   1.943   0.543   0.468   0.454  -0.017   1.954   0.501   0.952   0.953   1.279   1.974   1.379  -0.441  -0.158   0.801   0.683   0.757   0.362   1.643  -0.997   0.830  -1.050   0.051   0.330  -1.592  -1.491  -0.231   0.046   1.013

    1.000  10.264
   11.491  10.803  10.155   9.089   9.209   9.759   9.563   9.968   9.003   9.148   9.338   9.541   7.269   7.203   7.171   7.378   9.695   9.257   8.759   8.349  10.332   9.195   9.630  10.799   9.880  11.761   9.841  10.293   9.913   9.228   8.757  11.191   8.707   7.940   9.487   8.257   7.302   7.595   7.126   9.398   8.609   9.876   9.081   9.345   7.949   8.698   9.717   9.624   9.609   9.446  11.116  10.404   9.828   9.984   9.989  11.239   9.759   9.320  10.881  10.753   8.576   9.718   8.493   7.648   9.439   8.974   8.365   8.065   7.313   9.340   8.093   8.951   9.978   8.513   8.418   9.432  10.063  10.102  11.629   9.919   7.270   8.113   8.724  10.288   9.082   8.552   7.910   6.674   8.436   8.499   9.566   8.496   8.648   8.916  10.569   9.683   8.921   8.974   8.730   9.043  10.237  10.240  11.433   9.575   9.802  10.549  10.076  11.674  11.618  10.740  10.594   8.950   8.331